<?xml version="1.0" encoding="UTF-8"?>

<!-- generated on Sat Nov  9 23:17:18 2019 by SUMO netconvert Version 0.25.0
<?xml version="1.0" encoding="UTF-8"?>

<configuration xmlns:xsi="http://www.w3.org/2001/XMLSchema-instance" xsi:noNamespaceSchemaLocation="http://sumo.dlr.de/xsd/netconvertConfiguration.xsd">

    <input>
        <node-files value="cross.nod.xml"/>
        <edge-files value="cross.edg.xml"/>
        <connection-files value="cross.con.xml"/>
    </input>

    <output>
        <output-file value="cross.net.xml"/>
    </output>

    <report>
        <verbose value="true"/>
    </report>

</configuration>
-->

<net version="0.25" xmlns:xsi="http://www.w3.org/2001/XMLSchema-instance" xsi:noNamespaceSchemaLocation="http://sumo.dlr.de/xsd/net_file.xsd">

    <location netOffset="510.00,510.00" convBoundary="0.00,0.00,1020.00,1020.00" origBoundary="-510.00,-510.00,510.00,510.00" projParameter="!"/>

    <edge id=":0_0" function="internal">
        <lane id=":0_0_0" index="0" speed="15.28" length="7.91" shape="501.75,521.35 501.56,519.99 500.98,519.02 500.01,518.44 498.65,518.25"/>
        <lane id=":0_0_1" index="1" speed="15.28" length="7.91" shape="501.75,521.35 501.56,518.55 500.98,516.55 500.01,515.35 498.65,514.95"/>
        <lane id=":0_0_2" index="2" speed="15.28" length="7.91" shape="501.75,521.35 501.56,517.11 500.98,514.08 500.01,512.26 498.65,511.65"/>
    </edge>
    <edge id=":0_3" function="internal">
        <lane id=":0_3_0" index="0" speed="15.28" length="22.70" shape="501.75,521.35 501.75,514.61 501.75,510.00 501.75,505.39 501.75,498.65"/>
        <lane id=":0_3_1" index="1" speed="15.28" length="22.70" shape="505.05,521.35 505.05,514.61 505.05,510.00 505.05,505.39 505.05,498.65"/>
    </edge>
    <edge id=":0_5" function="internal">
        <lane id=":0_5_0" index="0" speed="15.28" length="15.03" shape="508.35,521.35 509.16,512.78 511.60,506.65 513.35,505.07"/>
        <lane id=":0_5_1" index="1" speed="15.28" length="15.03" shape="508.35,521.35 509.16,514.22 511.60,509.12 513.35,507.81"/>
        <lane id=":0_5_2" index="2" speed="15.28" length="15.03" shape="508.35,521.35 509.16,515.66 511.60,511.60 513.35,510.55"/>
    </edge>
    <edge id=":0_32" function="internal">
        <lane id=":0_32_0" index="0" speed="15.28" length="8.94" shape="513.35,505.07 515.66,502.98 521.35,501.75"/>
    </edge>
    <edge id=":0_33" function="internal">
        <lane id=":0_33_0" index="0" speed="15.28" length="8.67" shape="513.35,507.81 515.66,506.07 521.35,505.05"/>
    </edge>
    <edge id=":0_34" function="internal">
        <lane id=":0_34_0" index="0" speed="15.28" length="8.44" shape="513.35,510.55 515.66,509.16 521.35,508.35"/>
    </edge>
    <edge id=":0_8" function="internal">
        <lane id=":0_8_0" index="0" speed="15.28" length="7.91" shape="521.35,518.25 519.99,518.44 519.02,519.02 518.44,519.99 518.25,521.35"/>
        <lane id=":0_8_1" index="1" speed="15.28" length="7.91" shape="521.35,518.25 518.55,518.44 516.55,519.02 515.35,519.99 514.95,521.35"/>
        <lane id=":0_8_2" index="2" speed="15.28" length="7.91" shape="521.35,518.25 517.11,518.44 514.08,519.02 512.26,519.99 511.65,521.35"/>
    </edge>
    <edge id=":0_11" function="internal">
        <lane id=":0_11_0" index="0" speed="15.28" length="22.70" shape="521.35,518.25 514.61,518.25 510.00,518.25 505.39,518.25 498.65,518.25"/>
        <lane id=":0_11_1" index="1" speed="15.28" length="22.70" shape="521.35,514.95 514.61,514.95 510.00,514.95 505.39,514.95 498.65,514.95"/>
    </edge>
    <edge id=":0_13" function="internal">
        <lane id=":0_13_0" index="0" speed="15.28" length="15.03" shape="521.35,511.65 512.78,510.84 506.65,508.40 505.07,506.65"/>
        <lane id=":0_13_1" index="1" speed="15.28" length="15.03" shape="521.35,511.65 514.22,510.84 509.12,508.40 507.81,506.65"/>
        <lane id=":0_13_2" index="2" speed="15.28" length="15.03" shape="521.35,511.65 515.66,510.84 511.60,508.40 510.55,506.65"/>
    </edge>
    <edge id=":0_35" function="internal">
        <lane id=":0_35_0" index="0" speed="15.28" length="8.94" shape="505.07,506.65 502.98,504.34 501.75,498.65"/>
    </edge>
    <edge id=":0_36" function="internal">
        <lane id=":0_36_0" index="0" speed="15.28" length="8.67" shape="507.81,506.65 506.07,504.34 505.05,498.65"/>
    </edge>
    <edge id=":0_37" function="internal">
        <lane id=":0_37_0" index="0" speed="15.28" length="8.44" shape="510.55,506.65 509.16,504.34 508.35,498.65"/>
    </edge>
    <edge id=":0_16" function="internal">
        <lane id=":0_16_0" index="0" speed="15.28" length="7.91" shape="518.25,498.65 518.44,500.01 519.02,500.98 519.99,501.56 521.35,501.75"/>
        <lane id=":0_16_1" index="1" speed="15.28" length="7.91" shape="518.25,498.65 518.44,501.45 519.02,503.45 519.99,504.65 521.35,505.05"/>
        <lane id=":0_16_2" index="2" speed="15.28" length="7.91" shape="518.25,498.65 518.44,502.89 519.02,505.92 519.99,507.74 521.35,508.35"/>
    </edge>
    <edge id=":0_19" function="internal">
        <lane id=":0_19_0" index="0" speed="15.28" length="22.70" shape="518.25,498.65 518.25,505.39 518.25,510.00 518.25,514.61 518.25,521.35"/>
        <lane id=":0_19_1" index="1" speed="15.28" length="22.70" shape="514.95,498.65 514.95,505.39 514.95,510.00 514.95,514.61 514.95,521.35"/>
    </edge>
    <edge id=":0_21" function="internal">
        <lane id=":0_21_0" index="0" speed="15.28" length="15.03" shape="511.65,498.65 510.84,507.22 508.40,513.35 506.65,514.93"/>
        <lane id=":0_21_1" index="1" speed="15.28" length="15.03" shape="511.65,498.65 510.84,505.78 508.40,510.88 506.65,512.19"/>
        <lane id=":0_21_2" index="2" speed="15.28" length="15.03" shape="511.65,498.65 510.84,504.34 508.40,508.40 506.65,509.45"/>
    </edge>
    <edge id=":0_38" function="internal">
        <lane id=":0_38_0" index="0" speed="15.28" length="8.94" shape="506.65,514.93 504.34,517.02 498.65,518.25"/>
    </edge>
    <edge id=":0_39" function="internal">
        <lane id=":0_39_0" index="0" speed="15.28" length="8.67" shape="506.65,512.19 504.34,513.93 498.65,514.95"/>
    </edge>
    <edge id=":0_40" function="internal">
        <lane id=":0_40_0" index="0" speed="15.28" length="8.44" shape="506.65,509.45 504.34,510.84 498.65,511.65"/>
    </edge>
    <edge id=":0_24" function="internal">
        <lane id=":0_24_0" index="0" speed="15.28" length="7.91" shape="498.65,501.75 500.01,501.56 500.98,500.98 501.56,500.01 501.75,498.65"/>
        <lane id=":0_24_1" index="1" speed="15.28" length="7.91" shape="498.65,501.75 501.45,501.56 503.45,500.98 504.65,500.01 505.05,498.65"/>
        <lane id=":0_24_2" index="2" speed="15.28" length="7.91" shape="498.65,501.75 502.89,501.56 505.92,500.98 507.74,500.01 508.35,498.65"/>
    </edge>
    <edge id=":0_27" function="internal">
        <lane id=":0_27_0" index="0" speed="15.28" length="22.70" shape="498.65,501.75 505.39,501.75 510.00,501.75 514.61,501.75 521.35,501.75"/>
        <lane id=":0_27_1" index="1" speed="15.28" length="22.70" shape="498.65,505.05 505.39,505.05 510.00,505.05 514.61,505.05 521.35,505.05"/>
    </edge>
    <edge id=":0_29" function="internal">
        <lane id=":0_29_0" index="0" speed="15.28" length="15.03" shape="498.65,508.35 507.22,509.16 513.35,511.60 514.93,513.35"/>
        <lane id=":0_29_1" index="1" speed="15.28" length="15.03" shape="498.65,508.35 505.78,509.16 510.88,511.60 512.19,513.35"/>
        <lane id=":0_29_2" index="2" speed="15.28" length="15.03" shape="498.65,508.35 504.34,509.16 508.40,511.60 509.45,513.35"/>
    </edge>
    <edge id=":0_41" function="internal">
        <lane id=":0_41_0" index="0" speed="15.28" length="8.94" shape="514.93,513.35 517.02,515.66 518.25,521.35"/>
    </edge>
    <edge id=":0_42" function="internal">
        <lane id=":0_42_0" index="0" speed="15.28" length="8.67" shape="512.19,513.35 513.93,515.66 514.95,521.35"/>
    </edge>
    <edge id=":0_43" function="internal">
        <lane id=":0_43_0" index="0" speed="15.28" length="8.44" shape="509.45,513.35 510.84,515.66 511.65,521.35"/>
    </edge>
    <edge id=":1_0" function="internal">
        <lane id=":1_0_0" index="0" speed="15.28" length="0.10" shape="10.00,518.25 10.00,518.25"/>
        <lane id=":1_0_1" index="1" speed="15.28" length="0.10" shape="10.00,514.95 10.00,514.95"/>
        <lane id=":1_0_2" index="2" speed="15.28" length="0.10" shape="10.00,511.65 10.00,511.65"/>
    </edge>
    <edge id=":1_3" function="internal">
        <lane id=":1_3_0" index="0" speed="15.28" length="2.41" shape="10.00,511.65 8.76,510.82 8.35,510.00"/>
    </edge>
    <edge id=":1_8" function="internal">
        <lane id=":1_8_0" index="0" speed="15.28" length="2.41" shape="8.35,510.00 8.76,509.18 10.00,508.35"/>
    </edge>
    <edge id=":1_4" function="internal">
        <lane id=":1_4_0" index="0" speed="15.28" length="0.10" shape="10.00,501.75 10.00,501.75"/>
        <lane id=":1_4_1" index="1" speed="15.28" length="0.10" shape="10.00,505.05 10.00,505.05"/>
        <lane id=":1_4_2" index="2" speed="15.28" length="0.10" shape="10.00,508.35 10.00,508.35"/>
    </edge>
    <edge id=":1_7" function="internal">
        <lane id=":1_7_0" index="0" speed="15.28" length="2.41" shape="10.00,508.35 11.24,509.18 11.65,510.00"/>
    </edge>
    <edge id=":1_9" function="internal">
        <lane id=":1_9_0" index="0" speed="15.28" length="2.41" shape="11.65,510.00 11.24,510.82 10.00,511.65"/>
    </edge>
    <edge id=":2_0" function="internal">
        <lane id=":2_0_0" index="0" speed="15.28" length="0.10" shape="1010.00,518.25 1010.00,518.25"/>
        <lane id=":2_0_1" index="1" speed="15.28" length="0.10" shape="1010.00,514.95 1010.00,514.95"/>
        <lane id=":2_0_2" index="2" speed="15.28" length="0.10" shape="1010.00,511.65 1010.00,511.65"/>
    </edge>
    <edge id=":2_3" function="internal">
        <lane id=":2_3_0" index="0" speed="15.28" length="2.41" shape="1010.00,511.65 1008.76,510.82 1008.35,510.00"/>
    </edge>
    <edge id=":2_8" function="internal">
        <lane id=":2_8_0" index="0" speed="15.28" length="2.41" shape="1008.35,510.00 1008.76,509.18 1010.00,508.35"/>
    </edge>
    <edge id=":2_4" function="internal">
        <lane id=":2_4_0" index="0" speed="15.28" length="0.10" shape="1010.00,501.75 1010.00,501.75"/>
        <lane id=":2_4_1" index="1" speed="15.28" length="0.10" shape="1010.00,505.05 1010.00,505.05"/>
        <lane id=":2_4_2" index="2" speed="15.28" length="0.10" shape="1010.00,508.35 1010.00,508.35"/>
    </edge>
    <edge id=":2_7" function="internal">
        <lane id=":2_7_0" index="0" speed="15.28" length="2.41" shape="1010.00,508.35 1011.24,509.18 1011.65,510.00"/>
    </edge>
    <edge id=":2_9" function="internal">
        <lane id=":2_9_0" index="0" speed="15.28" length="2.41" shape="1011.65,510.00 1011.24,510.82 1010.00,511.65"/>
    </edge>
    <edge id=":3_0" function="internal">
        <lane id=":3_0_0" index="0" speed="15.28" length="0.10" shape="501.75,10.00 501.75,10.00"/>
        <lane id=":3_0_1" index="1" speed="15.28" length="0.10" shape="505.05,10.00 505.05,10.00"/>
        <lane id=":3_0_2" index="2" speed="15.28" length="0.10" shape="508.35,10.00 508.35,10.00"/>
    </edge>
    <edge id=":3_3" function="internal">
        <lane id=":3_3_0" index="0" speed="15.28" length="2.41" shape="508.35,10.00 509.18,8.76 510.00,8.35"/>
    </edge>
    <edge id=":3_8" function="internal">
        <lane id=":3_8_0" index="0" speed="15.28" length="2.41" shape="510.00,8.35 510.82,8.76 511.65,10.00"/>
    </edge>
    <edge id=":3_4" function="internal">
        <lane id=":3_4_0" index="0" speed="15.28" length="0.10" shape="518.25,10.00 518.25,10.00"/>
        <lane id=":3_4_1" index="1" speed="15.28" length="0.10" shape="514.95,10.00 514.95,10.00"/>
        <lane id=":3_4_2" index="2" speed="15.28" length="0.10" shape="511.65,10.00 511.65,10.00"/>
    </edge>
    <edge id=":3_7" function="internal">
        <lane id=":3_7_0" index="0" speed="15.28" length="2.41" shape="511.65,10.00 510.82,11.24 510.00,11.65"/>
    </edge>
    <edge id=":3_9" function="internal">
        <lane id=":3_9_0" index="0" speed="15.28" length="2.41" shape="510.00,11.65 509.18,11.24 508.35,10.00"/>
    </edge>
    <edge id=":4_0" function="internal">
        <lane id=":4_0_0" index="0" speed="15.28" length="0.10" shape="501.75,1010.00 501.75,1010.00"/>
        <lane id=":4_0_1" index="1" speed="15.28" length="0.10" shape="505.05,1010.00 505.05,1010.00"/>
        <lane id=":4_0_2" index="2" speed="15.28" length="0.10" shape="508.35,1010.00 508.35,1010.00"/>
    </edge>
    <edge id=":4_3" function="internal">
        <lane id=":4_3_0" index="0" speed="15.28" length="2.41" shape="508.35,1010.00 509.18,1008.76 510.00,1008.35"/>
    </edge>
    <edge id=":4_8" function="internal">
        <lane id=":4_8_0" index="0" speed="15.28" length="2.41" shape="510.00,1008.35 510.82,1008.76 511.65,1010.00"/>
    </edge>
    <edge id=":4_4" function="internal">
        <lane id=":4_4_0" index="0" speed="15.28" length="0.10" shape="518.25,1010.00 518.25,1010.00"/>
        <lane id=":4_4_1" index="1" speed="15.28" length="0.10" shape="514.95,1010.00 514.95,1010.00"/>
        <lane id=":4_4_2" index="2" speed="15.28" length="0.10" shape="511.65,1010.00 511.65,1010.00"/>
    </edge>
    <edge id=":4_7" function="internal">
        <lane id=":4_7_0" index="0" speed="15.28" length="2.41" shape="511.65,1010.00 510.82,1011.24 510.00,1011.65"/>
    </edge>
    <edge id=":4_9" function="internal">
        <lane id=":4_9_0" index="0" speed="15.28" length="2.41" shape="510.00,1011.65 509.18,1011.24 508.35,1010.00"/>
    </edge>
    <edge id=":51_0" function="internal">
        <lane id=":51_0_0" index="0" speed="15.28" length="4.82" shape="0.00,511.65 -1.24,510.82 -1.65,510.00 -1.24,509.18 0.00,508.35"/>
    </edge>
    <edge id=":52_0" function="internal">
        <lane id=":52_0_0" index="0" speed="15.28" length="4.82" shape="1020.00,508.35 1021.24,509.18 1021.65,510.00 1021.24,510.82 1020.00,511.65"/>
    </edge>
    <edge id=":53_0" function="internal">
        <lane id=":53_0_0" index="0" speed="15.28" length="4.82" shape="508.35,0.00 509.18,-1.24 510.00,-1.65 510.82,-1.24 511.65,0.00"/>
    </edge>
    <edge id=":54_0" function="internal">
        <lane id=":54_0_0" index="0" speed="15.28" length="4.82" shape="511.65,1020.00 510.82,1021.24 510.00,1021.65 509.18,1021.24 508.35,1020.00"/>
    </edge>

    <edge id="1i" from="1" to="0" priority="78">
        <lane id="1i_0" index="0" speed="19.44" length="488.65" shape="10.00,501.75 498.65,501.75"/>
        <lane id="1i_1" index="1" speed="19.44" length="488.65" shape="10.00,505.05 498.65,505.05"/>
        <lane id="1i_2" index="2" speed="19.44" length="488.65" shape="10.00,508.35 498.65,508.35"/>
    </edge>
    <edge id="1o" from="0" to="1" priority="46">
        <lane id="1o_0" index="0" speed="11.11" length="488.65" shape="498.65,518.25 10.00,518.25"/>
        <lane id="1o_1" index="1" speed="11.11" length="488.65" shape="498.65,514.95 10.00,514.95"/>
        <lane id="1o_2" index="2" speed="11.11" length="488.65" shape="498.65,511.65 10.00,511.65"/>
    </edge>
    <edge id="2i" from="2" to="0" priority="78">
        <lane id="2i_0" index="0" speed="19.44" length="488.65" shape="1010.00,518.25 521.35,518.25"/>
        <lane id="2i_1" index="1" speed="19.44" length="488.65" shape="1010.00,514.95 521.35,514.95"/>
        <lane id="2i_2" index="2" speed="19.44" length="488.65" shape="1010.00,511.65 521.35,511.65"/>
    </edge>
    <edge id="2o" from="0" to="2" priority="46">
        <lane id="2o_0" index="0" speed="11.11" length="488.65" shape="521.35,501.75 1010.00,501.75"/>
        <lane id="2o_1" index="1" speed="11.11" length="488.65" shape="521.35,505.05 1010.00,505.05"/>
        <lane id="2o_2" index="2" speed="11.11" length="488.65" shape="521.35,508.35 1010.00,508.35"/>
    </edge>
    <edge id="3i" from="3" to="0" priority="78">
        <lane id="3i_0" index="0" speed="19.44" length="488.65" shape="518.25,10.00 518.25,498.65"/>
        <lane id="3i_1" index="1" speed="19.44" length="488.65" shape="514.95,10.00 514.95,498.65"/>
        <lane id="3i_2" index="2" speed="19.44" length="488.65" shape="511.65,10.00 511.65,498.65"/>
    </edge>
    <edge id="3o" from="0" to="3" priority="46">
        <lane id="3o_0" index="0" speed="11.11" length="488.65" shape="501.75,498.65 501.75,10.00"/>
        <lane id="3o_1" index="1" speed="11.11" length="488.65" shape="505.05,498.65 505.05,10.00"/>
        <lane id="3o_2" index="2" speed="11.11" length="488.65" shape="508.35,498.65 508.35,10.00"/>
    </edge>
    <edge id="4i" from="4" to="0" priority="78">
        <lane id="4i_0" index="0" speed="19.44" length="488.65" shape="501.75,1010.00 501.75,521.35"/>
        <lane id="4i_1" index="1" speed="19.44" length="488.65" shape="505.05,1010.00 505.05,521.35"/>
        <lane id="4i_2" index="2" speed="19.44" length="488.65" shape="508.35,1010.00 508.35,521.35"/>
    </edge>
    <edge id="4o" from="0" to="4" priority="46">
        <lane id="4o_0" index="0" speed="11.11" length="488.65" shape="518.25,521.35 518.25,1010.00"/>
        <lane id="4o_1" index="1" speed="11.11" length="488.65" shape="514.95,521.35 514.95,1010.00"/>
        <lane id="4o_2" index="2" speed="11.11" length="488.65" shape="511.65,521.35 511.65,1010.00"/>
    </edge>
    <edge id="51i" from="1" to="51" priority="78">
        <lane id="51i_0" index="0" speed="19.44" length="10.00" shape="10.00,518.25 0.00,518.25"/>
        <lane id="51i_1" index="1" speed="19.44" length="10.00" shape="10.00,514.95 0.00,514.95"/>
        <lane id="51i_2" index="2" speed="19.44" length="10.00" shape="10.00,511.65 0.00,511.65"/>
    </edge>
    <edge id="51o" from="51" to="1" priority="46">
        <lane id="51o_0" index="0" speed="11.11" length="10.00" shape="0.00,501.75 10.00,501.75"/>
        <lane id="51o_1" index="1" speed="11.11" length="10.00" shape="0.00,505.05 10.00,505.05"/>
        <lane id="51o_2" index="2" speed="11.11" length="10.00" shape="0.00,508.35 10.00,508.35"/>
    </edge>
    <edge id="52i" from="2" to="52" priority="78">
        <lane id="52i_0" index="0" speed="19.44" length="10.00" shape="1010.00,501.75 1020.00,501.75"/>
        <lane id="52i_1" index="1" speed="19.44" length="10.00" shape="1010.00,505.05 1020.00,505.05"/>
        <lane id="52i_2" index="2" speed="19.44" length="10.00" shape="1010.00,508.35 1020.00,508.35"/>
    </edge>
    <edge id="52o" from="52" to="2" priority="46">
        <lane id="52o_0" index="0" speed="11.11" length="10.00" shape="1020.00,518.25 1010.00,518.25"/>
        <lane id="52o_1" index="1" speed="11.11" length="10.00" shape="1020.00,514.95 1010.00,514.95"/>
        <lane id="52o_2" index="2" speed="11.11" length="10.00" shape="1020.00,511.65 1010.00,511.65"/>
    </edge>
    <edge id="53i" from="3" to="53" priority="78">
        <lane id="53i_0" index="0" speed="19.44" length="10.00" shape="501.75,10.00 501.75,0.00"/>
        <lane id="53i_1" index="1" speed="19.44" length="10.00" shape="505.05,10.00 505.05,0.00"/>
        <lane id="53i_2" index="2" speed="19.44" length="10.00" shape="508.35,10.00 508.35,0.00"/>
    </edge>
    <edge id="53o" from="53" to="3" priority="46">
        <lane id="53o_0" index="0" speed="11.11" length="10.00" shape="518.25,0.00 518.25,10.00"/>
        <lane id="53o_1" index="1" speed="11.11" length="10.00" shape="514.95,0.00 514.95,10.00"/>
        <lane id="53o_2" index="2" speed="11.11" length="10.00" shape="511.65,0.00 511.65,10.00"/>
    </edge>
    <edge id="54i" from="4" to="54" priority="78">
        <lane id="54i_0" index="0" speed="19.44" length="10.00" shape="518.25,1010.00 518.25,1020.00"/>
        <lane id="54i_1" index="1" speed="19.44" length="10.00" shape="514.95,1010.00 514.95,1020.00"/>
        <lane id="54i_2" index="2" speed="19.44" length="10.00" shape="511.65,1010.00 511.65,1020.00"/>
    </edge>
    <edge id="54o" from="54" to="4" priority="46">
        <lane id="54o_0" index="0" speed="11.11" length="10.00" shape="501.75,1020.00 501.75,1010.00"/>
        <lane id="54o_1" index="1" speed="11.11" length="10.00" shape="505.05,1020.00 505.05,1010.00"/>
        <lane id="54o_2" index="2" speed="11.11" length="10.00" shape="508.35,1020.00 508.35,1010.00"/>
    </edge>

    <tlLogic id="0" type="static" programID="0" offset="0">
        <phase duration="27" state="GGGGGgggrrrrrrrrGGGGGgggrrrrrrrr"/>
        <phase duration="6" state="yyyyygggrrrrrrrryyyyygggrrrrrrrr"/>
        <phase duration="6" state="rrrrrGGGrrrrrrrrrrrrrGGGrrrrrrrr"/>
        <phase duration="6" state="rrrrryyyrrrrrrrrrrrrryyyrrrrrrrr"/>
        <phase duration="27" state="rrrrrrrrGGGGGgggrrrrrrrrGGGGGggg"/>
        <phase duration="6" state="rrrrrrrryyyyygggrrrrrrrryyyyyggg"/>
        <phase duration="6" state="rrrrrrrrrrrrrGGGrrrrrrrrrrrrrGGG"/>
        <phase duration="6" state="rrrrrrrrrrrrryyyrrrrrrrrrrrrryyy"/>
    </tlLogic>

    <junction id="0" type="traffic_light" x="510.00" y="510.00" incLanes="4i_0 4i_1 4i_2 2i_0 2i_1 2i_2 3i_0 3i_1 3i_2 1i_0 1i_1 1i_2" intLanes=":0_0_0 :0_0_1 :0_0_2 :0_3_0 :0_3_1 :0_32_0 :0_33_0 :0_34_0 :0_8_0 :0_8_1 :0_8_2 :0_11_0 :0_11_1 :0_35_0 :0_36_0 :0_37_0 :0_16_0 :0_16_1 :0_16_2 :0_19_0 :0_19_1 :0_38_0 :0_39_0 :0_40_0 :0_24_0 :0_24_1 :0_24_2 :0_27_0 :0_27_1 :0_41_0 :0_42_0 :0_43_0" shape="500.15,521.35 519.85,521.35 521.35,519.85 521.35,500.15 519.85,498.65 500.15,498.65 498.65,500.15 498.65,519.85">
        <request index="0" response="00000000000000000000000000000000" foes="00000000111000000001100000000000" cont="0"/>
        <request index="1" response="00000000000000000000000000000000" foes="00000000111000000001100000000000" cont="0"/>
        <request index="2" response="00000000000000000000000000000000" foes="00000000111000000001100000000000" cont="0"/>
        <request index="3" response="00000000000000000000000000000000" foes="11111111111000001111100000000000" cont="0"/>
        <request index="4" response="00000000000000000000000000000000" foes="11111111111000001111100000000000" cont="0"/>
        <request index="5" response="00000000000111110000000000000000" foes="11111000000111111111100000000000" cont="1"/>
        <request index="6" response="00000000000111110000000000000000" foes="11111000000111111111100000000000" cont="1"/>
        <request index="7" response="00000000000111110000000000000000" foes="11111000000111111111100000000000" cont="1"/>
        <request index="8" response="00000000000110000000000000000000" foes="11100000000110000000000000000000" cont="0"/>
        <request index="9" response="00000000000110000000000000000000" foes="11100000000110000000000000000000" cont="0"/>
        <request index="10" response="00000000000110000000000000000000" foes="11100000000110000000000000000000" cont="0"/>
        <request index="11" response="00000000111110000000000011111111" foes="11100000111110000000000011111111" cont="0"/>
        <request index="12" response="00000000111110000000000011111111" foes="11100000111110000000000011111111" cont="0"/>
        <request index="13" response="00011111111110000000000011111000" foes="00011111111110000000000011111000" cont="1"/>
        <request index="14" response="00011111111110000000000011111000" foes="00011111111110000000000011111000" cont="1"/>
        <request index="15" response="00011111111110000000000011111000" foes="00011111111110000000000011111000" cont="1"/>
        <request index="16" response="00000000000000000000000000000000" foes="00011000000000000000000011100000" cont="0"/>
        <request index="17" response="00000000000000000000000000000000" foes="00011000000000000000000011100000" cont="0"/>
        <request index="18" response="00000000000000000000000000000000" foes="00011000000000000000000011100000" cont="0"/>
        <request index="19" response="00000000000000000000000000000000" foes="11111000000000001111111111100000" cont="0"/>
        <request index="20" response="00000000000000000000000000000000" foes="11111000000000001111111111100000" cont="0"/>
        <request index="21" response="00000000000000000000000000011111" foes="11111000000000001111100000011111" cont="1"/>
        <request index="22" response="00000000000000000000000000011111" foes="11111000000000001111100000011111" cont="1"/>
        <request index="23" response="00000000000000000000000000011111" foes="11111000000000001111100000011111" cont="1"/>
        <request index="24" response="00000000000000000000000000011000" foes="00000000000000001110000000011000" cont="0"/>
        <request index="25" response="00000000000000000000000000011000" foes="00000000000000001110000000011000" cont="0"/>
        <request index="26" response="00000000000000000000000000011000" foes="00000000000000001110000000011000" cont="0"/>
        <request index="27" response="00000000111111110000000011111000" foes="00000000111111111110000011111000" cont="0"/>
        <request index="28" response="00000000111111110000000011111000" foes="00000000111111111110000011111000" cont="0"/>
        <request index="29" response="00000000111110000001111111111000" foes="00000000111110000001111111111000" cont="1"/>
        <request index="30" response="00000000111110000001111111111000" foes="00000000111110000001111111111000" cont="1"/>
        <request index="31" response="00000000111110000001111111111000" foes="00000000111110000001111111111000" cont="1"/>
    </junction>
    <junction id="1" type="priority" x="10.00" y="510.00" incLanes="1o_0 1o_1 1o_2 51o_0 51o_1 51o_2" intLanes=":1_0_0 :1_0_1 :1_0_2 :1_8_0 :1_4_0 :1_4_1 :1_4_2 :1_9_0" shape="10.00,519.85 10.00,500.15 10.00,519.85">
        <request index="0" response="00000000" foes="10000000" cont="0"/>
        <request index="1" response="00000000" foes="10000000" cont="0"/>
        <request index="2" response="00000000" foes="10000000" cont="0"/>
        <request index="3" response="01110000" foes="01110000" cont="1"/>
        <request index="4" response="00000000" foes="00001000" cont="0"/>
        <request index="5" response="00000000" foes="00001000" cont="0"/>
        <request index="6" response="00000000" foes="00001000" cont="0"/>
        <request index="7" response="00000111" foes="00000111" cont="1"/>
    </junction>
    <junction id="2" type="priority" x="1010.00" y="510.00" incLanes="52o_0 52o_1 52o_2 2o_0 2o_1 2o_2" intLanes=":2_0_0 :2_0_1 :2_0_2 :2_8_0 :2_4_0 :2_4_1 :2_4_2 :2_9_0" shape="1010.00,519.85 1010.00,500.15 1010.00,519.85">
        <request index="0" response="00000000" foes="10000000" cont="0"/>
        <request index="1" response="00000000" foes="10000000" cont="0"/>
        <request index="2" response="00000000" foes="10000000" cont="0"/>
        <request index="3" response="01110000" foes="01110000" cont="1"/>
        <request index="4" response="00000000" foes="00001000" cont="0"/>
        <request index="5" response="00000000" foes="00001000" cont="0"/>
        <request index="6" response="00000000" foes="00001000" cont="0"/>
        <request index="7" response="00000111" foes="00000111" cont="1"/>
    </junction>
    <junction id="3" type="priority" x="510.00" y="10.00" incLanes="3o_0 3o_1 3o_2 53o_0 53o_1 53o_2" intLanes=":3_0_0 :3_0_1 :3_0_2 :3_8_0 :3_4_0 :3_4_1 :3_4_2 :3_9_0" shape="500.15,10.00 519.85,10.00 500.15,10.00">
        <request index="0" response="00000000" foes="10000000" cont="0"/>
        <request index="1" response="00000000" foes="10000000" cont="0"/>
        <request index="2" response="00000000" foes="10000000" cont="0"/>
        <request index="3" response="01110000" foes="01110000" cont="1"/>
        <request index="4" response="00000000" foes="00001000" cont="0"/>
        <request index="5" response="00000000" foes="00001000" cont="0"/>
        <request index="6" response="00000000" foes="00001000" cont="0"/>
        <request index="7" response="00000111" foes="00000111" cont="1"/>
    </junction>
    <junction id="4" type="priority" x="510.00" y="1010.00" incLanes="54o_0 54o_1 54o_2 4o_0 4o_1 4o_2" intLanes=":4_0_0 :4_0_1 :4_0_2 :4_8_0 :4_4_0 :4_4_1 :4_4_2 :4_9_0" shape="500.15,1010.00 519.85,1010.00 500.15,1010.00">
        <request index="0" response="00000000" foes="10000000" cont="0"/>
        <request index="1" response="00000000" foes="10000000" cont="0"/>
        <request index="2" response="00000000" foes="10000000" cont="0"/>
        <request index="3" response="01110000" foes="01110000" cont="1"/>
        <request index="4" response="00000000" foes="00001000" cont="0"/>
        <request index="5" response="00000000" foes="00001000" cont="0"/>
        <request index="6" response="00000000" foes="00001000" cont="0"/>
        <request index="7" response="00000111" foes="00000111" cont="1"/>
    </junction>
    <junction id="51" type="priority" x="0.00" y="510.00" incLanes="51i_0 51i_1 51i_2" intLanes=":51_0_0" shape="0.00,509.95 0.00,500.15 0.00,519.85 0.00,510.05">
        <request index="0" response="0" foes="0" cont="0"/>
    </junction>
    <junction id="52" type="priority" x="1020.00" y="510.00" incLanes="52i_0 52i_1 52i_2" intLanes=":52_0_0" shape="1020.00,510.05 1020.00,519.85 1020.00,500.15 1020.00,509.95">
        <request index="0" response="0" foes="0" cont="0"/>
    </junction>
    <junction id="53" type="priority" x="510.00" y="0.00" incLanes="53i_0 53i_1 53i_2" intLanes=":53_0_0" shape="510.05,0.00 519.85,0.00 500.15,0.00 509.95,0.00">
        <request index="0" response="0" foes="0" cont="0"/>
    </junction>
    <junction id="54" type="priority" x="510.00" y="1020.00" incLanes="54i_0 54i_1 54i_2" intLanes=":54_0_0" shape="509.95,1020.00 500.15,1020.00 519.85,1020.00 510.05,1020.00">
        <request index="0" response="0" foes="0" cont="0"/>
    </junction>

    <junction id=":0_32_0" type="internal" x="513.35" y="505.07" incLanes=":0_5_0 3i_0 3i_1" intLanes=":0_11_0 :0_11_1 :0_13_0 :0_13_1 :0_13_2 :0_16_0 :0_16_1 :0_16_2 :0_19_0 :0_19_1 :0_27_0 :0_27_1 :0_29_0 :0_29_1 :0_29_2"/>