<routes>
 <vehicles>
 <flow id="f12" begin="0" end="10000" from="1i" to="2o" probability="0.5"/>
 <flow id="f14" begin="0" end="10000" from="1i" to="4o" probability="0.2"/>
 <flow id="f13" begin="0" end="10000" from="1i" to="3o" probability="0.2"/>
 <flow id="f21" begin="0" end="10000" from="2i" to="1o" probability="0.5"/>
 <flow id="f23" begin="0" end="10000" from="2i" to="3o" probability="0.2"/>
 <flow id="f24" begin="0" end="10000" from="2i" to="4o" probability="0.2"/>
 <flow id="f34" begin="0" end="10000" from="3i" to="4o" probability="0.5"/>
 <flow id="f31" begin="0" end="10000" from="3i" to="1o" probability="0.2"/>
 <flow id="f32" begin="0" end="10000" from="3i" to="2o" probability="0.2"/>
 <flow id="f43" begin="0" end="10000" from="4i" to="3o" probability="0.5"/>
 <flow id="f41" begin="0" end="10000" from="4i" to="1o" probability="0.2"/>
 <flow id="f42" begin="0" end="10000" from="4i" to="2o" probability="0.2"/>
 </vehicles>
</routes>