<routes>
            <vType accel="1.0" decel="4.5" id="standard_car" length="5.0" minGap="2.5" maxSpeed="25" sigma="0.5" />
            <route id="W_N" edges="Wi No"/>
            <route id="W_E" edges="Wi Eo"/>
            <route id="W_S" edges="Wi So"/>
            <route id="N_W" edges="Ni Wo"/>
            <route id="N_E" edges="Ni Eo"/>
            <route id="N_S" edges="Ni So"/>
            <route id="E_W" edges="Ei Wo"/>
            <route id="E_N" edges="Ei No"/>
            <route id="E_S" edges="Ei So"/>
            <route id="S_W" edges="Si Wo"/>
            <route id="S_N" edges="Si No"/>
            <route id="S_E" edges="Si Eo"/>
    <vehicle id="N_E_0" type="standard_car" route="N_E" depart="44.0" departLane="random" departSpeed="10" />
    <vehicle id="W_E_1" type="standard_car" route="W_E" depart="78.0" departLane="random" departSpeed="10" />
    <vehicle id="N_S_2" type="standard_car" route="N_S" depart="102.0" departLane="random" departSpeed="10" />
    <vehicle id="E_W_3" type="standard_car" route="E_W" depart="126.0" departLane="random" departSpeed="10" />
    <vehicle id="E_W_4" type="standard_car" route="E_W" depart="136.0" departLane="random" departSpeed="10" />
    <vehicle id="N_E_5" type="standard_car" route="N_E" depart="149.0" departLane="random" departSpeed="10" />
    <vehicle id="E_W_6" type="standard_car" route="E_W" depart="150.0" departLane="random" departSpeed="10" />
    <vehicle id="S_N_7" type="standard_car" route="S_N" depart="163.0" departLane="random" departSpeed="10" />
    <vehicle id="N_S_8" type="standard_car" route="N_S" depart="168.0" departLane="random" departSpeed="10" />
    <vehicle id="N_S_9" type="standard_car" route="N_S" depart="172.0" departLane="random" departSpeed="10" />
    <vehicle id="E_W_10" type="standard_car" route="E_W" depart="179.0" departLane="random" departSpeed="10" />
    <vehicle id="N_S_11" type="standard_car" route="N_S" depart="188.0" departLane="random" departSpeed="10" />
    <vehicle id="N_S_12" type="standard_car" route="N_S" depart="190.0" departLane="random" departSpeed="10" />
    <vehicle id="S_N_13" type="standard_car" route="S_N" depart="198.0" departLane="random" departSpeed="10" />
    <vehicle id="W_E_14" type="standard_car" route="W_E" depart="205.0" departLane="random" departSpeed="10" />
    <vehicle id="S_W_15" type="standard_car" route="S_W" depart="220.0" departLane="random" departSpeed="10" />
    <vehicle id="E_W_16" type="standard_car" route="E_W" depart="221.0" departLane="random" departSpeed="10" />
    <vehicle id="N_S_17" type="standard_car" route="N_S" depart="222.0" departLane="random" departSpeed="10" />
    <vehicle id="E_W_18" type="standard_car" route="E_W" depart="228.0" departLane="random" departSpeed="10" />
    <vehicle id="W_E_19" type="standard_car" route="W_E" depart="264.0" departLane="random" departSpeed="10" />
    <vehicle id="N_W_20" type="standard_car" route="N_W" depart="267.0" departLane="random" departSpeed="10" />
    <vehicle id="S_N_21" type="standard_car" route="S_N" depart="267.0" departLane="random" departSpeed="10" />
    <vehicle id="E_W_22" type="standard_car" route="E_W" depart="277.0" departLane="random" departSpeed="10" />
    <vehicle id="E_W_23" type="standard_car" route="E_W" depart="293.0" departLane="random" departSpeed="10" />
    <vehicle id="N_S_24" type="standard_car" route="N_S" depart="295.0" departLane="random" departSpeed="10" />
    <vehicle id="S_N_25" type="standard_car" route="S_N" depart="308.0" departLane="random" departSpeed="10" />
    <vehicle id="E_W_26" type="standard_car" route="E_W" depart="310.0" departLane="random" departSpeed="10" />
    <vehicle id="N_S_27" type="standard_car" route="N_S" depart="320.0" departLane="random" departSpeed="10" />
    <vehicle id="N_S_28" type="standard_car" route="N_S" depart="324.0" departLane="random" departSpeed="10" />
    <vehicle id="N_S_29" type="standard_car" route="N_S" depart="328.0" departLane="random" departSpeed="10" />
    <vehicle id="N_S_30" type="standard_car" route="N_S" depart="329.0" departLane="random" departSpeed="10" />
    <vehicle id="W_E_31" type="standard_car" route="W_E" depart="331.0" departLane="random" departSpeed="10" />
    <vehicle id="S_N_32" type="standard_car" route="S_N" depart="332.0" departLane="random" departSpeed="10" />
    <vehicle id="S_N_33" type="standard_car" route="S_N" depart="335.0" departLane="random" departSpeed="10" />
    <vehicle id="E_W_34" type="standard_car" route="E_W" depart="340.0" departLane="random" departSpeed="10" />
    <vehicle id="W_E_35" type="standard_car" route="W_E" depart="346.0" departLane="random" departSpeed="10" />
    <vehicle id="W_E_36" type="standard_car" route="W_E" depart="349.0" departLane="random" departSpeed="10" />
    <vehicle id="N_S_37" type="standard_car" route="N_S" depart="350.0" departLane="random" departSpeed="10" />
    <vehicle id="S_N_38" type="standard_car" route="S_N" depart="355.0" departLane="random" departSpeed="10" />
    <vehicle id="S_N_39" type="standard_car" route="S_N" depart="376.0" departLane="random" departSpeed="10" />
    <vehicle id="S_E_40" type="standard_car" route="S_E" depart="382.0" departLane="random" departSpeed="10" />
    <vehicle id="N_S_41" type="standard_car" route="N_S" depart="382.0" departLane="random" departSpeed="10" />
    <vehicle id="S_N_42" type="standard_car" route="S_N" depart="387.0" departLane="random" departSpeed="10" />
    <vehicle id="N_S_43" type="standard_car" route="N_S" depart="387.0" departLane="random" departSpeed="10" />
    <vehicle id="E_N_44" type="standard_car" route="E_N" depart="389.0" departLane="random" departSpeed="10" />
    <vehicle id="E_S_45" type="standard_car" route="E_S" depart="390.0" departLane="random" departSpeed="10" />
    <vehicle id="S_N_46" type="standard_car" route="S_N" depart="393.0" departLane="random" departSpeed="10" />
    <vehicle id="W_E_47" type="standard_car" route="W_E" depart="394.0" departLane="random" departSpeed="10" />
    <vehicle id="E_W_48" type="standard_car" route="E_W" depart="395.0" departLane="random" departSpeed="10" />
    <vehicle id="W_E_49" type="standard_car" route="W_E" depart="400.0" departLane="random" departSpeed="10" />
    <vehicle id="W_E_50" type="standard_car" route="W_E" depart="404.0" departLane="random" departSpeed="10" />
    <vehicle id="W_E_51" type="standard_car" route="W_E" depart="407.0" departLane="random" departSpeed="10" />
    <vehicle id="W_S_52" type="standard_car" route="W_S" depart="415.0" departLane="random" departSpeed="10" />
    <vehicle id="E_W_53" type="standard_car" route="E_W" depart="436.0" departLane="random" departSpeed="10" />
    <vehicle id="W_E_54" type="standard_car" route="W_E" depart="439.0" departLane="random" departSpeed="10" />
    <vehicle id="E_W_55" type="standard_car" route="E_W" depart="443.0" departLane="random" departSpeed="10" />
    <vehicle id="E_W_56" type="standard_car" route="E_W" depart="447.0" departLane="random" departSpeed="10" />
    <vehicle id="W_E_57" type="standard_car" route="W_E" depart="458.0" departLane="random" departSpeed="10" />
    <vehicle id="E_W_58" type="standard_car" route="E_W" depart="461.0" departLane="random" departSpeed="10" />
    <vehicle id="E_S_59" type="standard_car" route="E_S" depart="462.0" departLane="random" departSpeed="10" />
    <vehicle id="W_E_60" type="standard_car" route="W_E" depart="468.0" departLane="random" departSpeed="10" />
    <vehicle id="E_W_61" type="standard_car" route="E_W" depart="482.0" departLane="random" departSpeed="10" />
    <vehicle id="E_W_62" type="standard_car" route="E_W" depart="495.0" departLane="random" departSpeed="10" />
    <vehicle id="E_W_63" type="standard_car" route="E_W" depart="495.0" departLane="random" departSpeed="10" />
    <vehicle id="N_S_64" type="standard_car" route="N_S" depart="505.0" departLane="random" departSpeed="10" />
    <vehicle id="E_W_65" type="standard_car" route="E_W" depart="510.0" departLane="random" departSpeed="10" />
    <vehicle id="N_S_66" type="standard_car" route="N_S" depart="516.0" departLane="random" departSpeed="10" />
    <vehicle id="E_N_67" type="standard_car" route="E_N" depart="524.0" departLane="random" departSpeed="10" />
    <vehicle id="N_S_68" type="standard_car" route="N_S" depart="526.0" departLane="random" departSpeed="10" />
    <vehicle id="N_S_69" type="standard_car" route="N_S" depart="531.0" departLane="random" departSpeed="10" />
    <vehicle id="S_N_70" type="standard_car" route="S_N" depart="531.0" departLane="random" departSpeed="10" />
    <vehicle id="N_S_71" type="standard_car" route="N_S" depart="533.0" departLane="random" departSpeed="10" />
    <vehicle id="N_S_72" type="standard_car" route="N_S" depart="539.0" departLane="random" departSpeed="10" />
    <vehicle id="S_W_73" type="standard_car" route="S_W" depart="539.0" departLane="random" departSpeed="10" />
    <vehicle id="W_E_74" type="standard_car" route="W_E" depart="539.0" departLane="random" departSpeed="10" />
    <vehicle id="W_E_75" type="standard_car" route="W_E" depart="556.0" departLane="random" departSpeed="10" />
    <vehicle id="N_E_76" type="standard_car" route="N_E" depart="558.0" departLane="random" departSpeed="10" />
    <vehicle id="N_E_77" type="standard_car" route="N_E" depart="559.0" departLane="random" departSpeed="10" />
    <vehicle id="S_W_78" type="standard_car" route="S_W" depart="562.0" departLane="random" departSpeed="10" />
    <vehicle id="E_W_79" type="standard_car" route="E_W" depart="564.0" departLane="random" departSpeed="10" />
    <vehicle id="E_W_80" type="standard_car" route="E_W" depart="566.0" departLane="random" departSpeed="10" />
    <vehicle id="E_W_81" type="standard_car" route="E_W" depart="568.0" departLane="random" departSpeed="10" />
    <vehicle id="N_W_82" type="standard_car" route="N_W" depart="568.0" departLane="random" departSpeed="10" />
    <vehicle id="W_N_83" type="standard_car" route="W_N" depart="573.0" departLane="random" departSpeed="10" />
    <vehicle id="N_S_84" type="standard_car" route="N_S" depart="573.0" departLane="random" departSpeed="10" />
    <vehicle id="N_W_85" type="standard_car" route="N_W" depart="575.0" departLane="random" departSpeed="10" />
    <vehicle id="N_E_86" type="standard_car" route="N_E" depart="578.0" departLane="random" departSpeed="10" />
    <vehicle id="S_N_87" type="standard_car" route="S_N" depart="578.0" departLane="random" departSpeed="10" />
    <vehicle id="S_N_88" type="standard_car" route="S_N" depart="579.0" departLane="random" departSpeed="10" />
    <vehicle id="E_S_89" type="standard_car" route="E_S" depart="584.0" departLane="random" departSpeed="10" />
    <vehicle id="W_E_90" type="standard_car" route="W_E" depart="588.0" departLane="random" departSpeed="10" />
    <vehicle id="W_E_91" type="standard_car" route="W_E" depart="589.0" departLane="random" departSpeed="10" />
    <vehicle id="W_E_92" type="standard_car" route="W_E" depart="589.0" departLane="random" departSpeed="10" />
    <vehicle id="W_N_93" type="standard_car" route="W_N" depart="591.0" departLane="random" departSpeed="10" />
    <vehicle id="E_N_94" type="standard_car" route="E_N" depart="593.0" departLane="random" departSpeed="10" />
    <vehicle id="W_E_95" type="standard_car" route="W_E" depart="601.0" departLane="random" departSpeed="10" />
    <vehicle id="E_W_96" type="standard_car" route="E_W" depart="604.0" departLane="random" departSpeed="10" />
    <vehicle id="E_W_97" type="standard_car" route="E_W" depart="609.0" departLane="random" departSpeed="10" />
    <vehicle id="S_N_98" type="standard_car" route="S_N" depart="610.0" departLane="random" departSpeed="10" />
    <vehicle id="W_E_99" type="standard_car" route="W_E" depart="615.0" departLane="random" departSpeed="10" />
    <vehicle id="E_W_100" type="standard_car" route="E_W" depart="616.0" departLane="random" departSpeed="10" />
    <vehicle id="N_E_101" type="standard_car" route="N_E" depart="624.0" departLane="random" departSpeed="10" />
    <vehicle id="N_S_102" type="standard_car" route="N_S" depart="629.0" departLane="random" departSpeed="10" />
    <vehicle id="N_E_103" type="standard_car" route="N_E" depart="636.0" departLane="random" departSpeed="10" />
    <vehicle id="E_W_104" type="standard_car" route="E_W" depart="637.0" departLane="random" departSpeed="10" />
    <vehicle id="E_W_105" type="standard_car" route="E_W" depart="641.0" departLane="random" departSpeed="10" />
    <vehicle id="S_E_106" type="standard_car" route="S_E" depart="646.0" departLane="random" departSpeed="10" />
    <vehicle id="S_E_107" type="standard_car" route="S_E" depart="652.0" departLane="random" departSpeed="10" />
    <vehicle id="E_W_108" type="standard_car" route="E_W" depart="655.0" departLane="random" departSpeed="10" />
    <vehicle id="N_S_109" type="standard_car" route="N_S" depart="656.0" departLane="random" departSpeed="10" />
    <vehicle id="E_W_110" type="standard_car" route="E_W" depart="660.0" departLane="random" departSpeed="10" />
    <vehicle id="E_W_111" type="standard_car" route="E_W" depart="660.0" departLane="random" departSpeed="10" />
    <vehicle id="E_N_112" type="standard_car" route="E_N" depart="661.0" departLane="random" departSpeed="10" />
    <vehicle id="N_S_113" type="standard_car" route="N_S" depart="664.0" departLane="random" departSpeed="10" />
    <vehicle id="S_E_114" type="standard_car" route="S_E" depart="665.0" departLane="random" departSpeed="10" />
    <vehicle id="S_N_115" type="standard_car" route="S_N" depart="671.0" departLane="random" departSpeed="10" />
    <vehicle id="W_E_116" type="standard_car" route="W_E" depart="671.0" departLane="random" departSpeed="10" />
    <vehicle id="W_E_117" type="standard_car" route="W_E" depart="675.0" departLane="random" departSpeed="10" />
    <vehicle id="E_W_118" type="standard_car" route="E_W" depart="678.0" departLane="random" departSpeed="10" />
    <vehicle id="N_S_119" type="standard_car" route="N_S" depart="679.0" departLane="random" departSpeed="10" />
    <vehicle id="W_E_120" type="standard_car" route="W_E" depart="680.0" departLane="random" departSpeed="10" />
    <vehicle id="E_W_121" type="standard_car" route="E_W" depart="684.0" departLane="random" departSpeed="10" />
    <vehicle id="S_N_122" type="standard_car" route="S_N" depart="687.0" departLane="random" departSpeed="10" />
    <vehicle id="W_E_123" type="standard_car" route="W_E" depart="688.0" departLane="random" departSpeed="10" />
    <vehicle id="W_E_124" type="standard_car" route="W_E" depart="692.0" departLane="random" departSpeed="10" />
    <vehicle id="N_S_125" type="standard_car" route="N_S" depart="698.0" departLane="random" departSpeed="10" />
    <vehicle id="S_N_126" type="standard_car" route="S_N" depart="699.0" departLane="random" departSpeed="10" />
    <vehicle id="S_N_127" type="standard_car" route="S_N" depart="700.0" departLane="random" departSpeed="10" />
    <vehicle id="W_E_128" type="standard_car" route="W_E" depart="702.0" departLane="random" departSpeed="10" />
    <vehicle id="E_S_129" type="standard_car" route="E_S" depart="702.0" departLane="random" departSpeed="10" />
    <vehicle id="E_W_130" type="standard_car" route="E_W" depart="702.0" departLane="random" departSpeed="10" />
    <vehicle id="S_N_131" type="standard_car" route="S_N" depart="702.0" departLane="random" departSpeed="10" />
    <vehicle id="E_W_132" type="standard_car" route="E_W" depart="708.0" departLane="random" departSpeed="10" />
    <vehicle id="S_N_133" type="standard_car" route="S_N" depart="710.0" departLane="random" departSpeed="10" />
    <vehicle id="E_W_134" type="standard_car" route="E_W" depart="710.0" departLane="random" departSpeed="10" />
    <vehicle id="W_E_135" type="standard_car" route="W_E" depart="713.0" departLane="random" departSpeed="10" />
    <vehicle id="N_W_136" type="standard_car" route="N_W" depart="714.0" departLane="random" departSpeed="10" />
    <vehicle id="N_W_137" type="standard_car" route="N_W" depart="717.0" departLane="random" departSpeed="10" />
    <vehicle id="E_W_138" type="standard_car" route="E_W" depart="730.0" departLane="random" departSpeed="10" />
    <vehicle id="S_N_139" type="standard_car" route="S_N" depart="733.0" departLane="random" departSpeed="10" />
    <vehicle id="E_S_140" type="standard_car" route="E_S" depart="737.0" departLane="random" departSpeed="10" />
    <vehicle id="E_W_141" type="standard_car" route="E_W" depart="741.0" departLane="random" departSpeed="10" />
    <vehicle id="N_S_142" type="standard_car" route="N_S" depart="741.0" departLane="random" departSpeed="10" />
    <vehicle id="N_S_143" type="standard_car" route="N_S" depart="741.0" departLane="random" departSpeed="10" />
    <vehicle id="E_W_144" type="standard_car" route="E_W" depart="743.0" departLane="random" departSpeed="10" />
    <vehicle id="E_W_145" type="standard_car" route="E_W" depart="745.0" departLane="random" departSpeed="10" />
    <vehicle id="E_W_146" type="standard_car" route="E_W" depart="747.0" departLane="random" departSpeed="10" />
    <vehicle id="E_W_147" type="standard_car" route="E_W" depart="748.0" departLane="random" departSpeed="10" />
    <vehicle id="N_S_148" type="standard_car" route="N_S" depart="751.0" departLane="random" departSpeed="10" />
    <vehicle id="N_S_149" type="standard_car" route="N_S" depart="751.0" departLane="random" departSpeed="10" />
    <vehicle id="N_S_150" type="standard_car" route="N_S" depart="753.0" departLane="random" departSpeed="10" />
    <vehicle id="S_N_151" type="standard_car" route="S_N" depart="758.0" departLane="random" departSpeed="10" />
    <vehicle id="N_S_152" type="standard_car" route="N_S" depart="761.0" departLane="random" departSpeed="10" />
    <vehicle id="S_N_153" type="standard_car" route="S_N" depart="762.0" departLane="random" departSpeed="10" />
    <vehicle id="W_E_154" type="standard_car" route="W_E" depart="765.0" departLane="random" departSpeed="10" />
    <vehicle id="E_W_155" type="standard_car" route="E_W" depart="766.0" departLane="random" departSpeed="10" />
    <vehicle id="E_W_156" type="standard_car" route="E_W" depart="767.0" departLane="random" departSpeed="10" />
    <vehicle id="N_S_157" type="standard_car" route="N_S" depart="768.0" departLane="random" departSpeed="10" />
    <vehicle id="S_N_158" type="standard_car" route="S_N" depart="770.0" departLane="random" departSpeed="10" />
    <vehicle id="W_E_159" type="standard_car" route="W_E" depart="771.0" departLane="random" departSpeed="10" />
    <vehicle id="W_N_160" type="standard_car" route="W_N" depart="778.0" departLane="random" departSpeed="10" />
    <vehicle id="E_W_161" type="standard_car" route="E_W" depart="778.0" departLane="random" departSpeed="10" />
    <vehicle id="N_S_162" type="standard_car" route="N_S" depart="780.0" departLane="random" departSpeed="10" />
    <vehicle id="W_N_163" type="standard_car" route="W_N" depart="785.0" departLane="random" departSpeed="10" />
    <vehicle id="E_W_164" type="standard_car" route="E_W" depart="786.0" departLane="random" departSpeed="10" />
    <vehicle id="S_N_165" type="standard_car" route="S_N" depart="790.0" departLane="random" departSpeed="10" />
    <vehicle id="S_E_166" type="standard_car" route="S_E" depart="792.0" departLane="random" departSpeed="10" />
    <vehicle id="E_N_167" type="standard_car" route="E_N" depart="795.0" departLane="random" departSpeed="10" />
    <vehicle id="S_E_168" type="standard_car" route="S_E" depart="797.0" departLane="random" departSpeed="10" />
    <vehicle id="N_S_169" type="standard_car" route="N_S" depart="801.0" departLane="random" departSpeed="10" />
    <vehicle id="S_N_170" type="standard_car" route="S_N" depart="802.0" departLane="random" departSpeed="10" />
    <vehicle id="S_N_171" type="standard_car" route="S_N" depart="803.0" departLane="random" departSpeed="10" />
    <vehicle id="S_E_172" type="standard_car" route="S_E" depart="808.0" departLane="random" departSpeed="10" />
    <vehicle id="S_N_173" type="standard_car" route="S_N" depart="809.0" departLane="random" departSpeed="10" />
    <vehicle id="N_S_174" type="standard_car" route="N_S" depart="813.0" departLane="random" departSpeed="10" />
    <vehicle id="S_E_175" type="standard_car" route="S_E" depart="815.0" departLane="random" departSpeed="10" />
    <vehicle id="S_E_176" type="standard_car" route="S_E" depart="817.0" departLane="random" departSpeed="10" />
    <vehicle id="N_S_177" type="standard_car" route="N_S" depart="822.0" departLane="random" departSpeed="10" />
    <vehicle id="N_S_178" type="standard_car" route="N_S" depart="824.0" departLane="random" departSpeed="10" />
    <vehicle id="S_N_179" type="standard_car" route="S_N" depart="825.0" departLane="random" departSpeed="10" />
    <vehicle id="N_S_180" type="standard_car" route="N_S" depart="826.0" departLane="random" departSpeed="10" />
    <vehicle id="S_N_181" type="standard_car" route="S_N" depart="828.0" departLane="random" departSpeed="10" />
    <vehicle id="E_W_182" type="standard_car" route="E_W" depart="831.0" departLane="random" departSpeed="10" />
    <vehicle id="S_E_183" type="standard_car" route="S_E" depart="831.0" departLane="random" departSpeed="10" />
    <vehicle id="N_S_184" type="standard_car" route="N_S" depart="832.0" departLane="random" departSpeed="10" />
    <vehicle id="W_E_185" type="standard_car" route="W_E" depart="834.0" departLane="random" departSpeed="10" />
    <vehicle id="S_E_186" type="standard_car" route="S_E" depart="837.0" departLane="random" departSpeed="10" />
    <vehicle id="W_E_187" type="standard_car" route="W_E" depart="837.0" departLane="random" departSpeed="10" />
    <vehicle id="E_W_188" type="standard_car" route="E_W" depart="841.0" departLane="random" departSpeed="10" />
    <vehicle id="N_E_189" type="standard_car" route="N_E" depart="845.0" departLane="random" departSpeed="10" />
    <vehicle id="N_S_190" type="standard_car" route="N_S" depart="846.0" departLane="random" departSpeed="10" />
    <vehicle id="N_S_191" type="standard_car" route="N_S" depart="846.0" departLane="random" departSpeed="10" />
    <vehicle id="W_E_192" type="standard_car" route="W_E" depart="846.0" departLane="random" departSpeed="10" />
    <vehicle id="S_N_193" type="standard_car" route="S_N" depart="847.0" departLane="random" departSpeed="10" />
    <vehicle id="W_E_194" type="standard_car" route="W_E" depart="850.0" departLane="random" departSpeed="10" />
    <vehicle id="W_E_195" type="standard_car" route="W_E" depart="859.0" departLane="random" departSpeed="10" />
    <vehicle id="S_N_196" type="standard_car" route="S_N" depart="864.0" departLane="random" departSpeed="10" />
    <vehicle id="W_S_197" type="standard_car" route="W_S" depart="864.0" departLane="random" departSpeed="10" />
    <vehicle id="N_S_198" type="standard_car" route="N_S" depart="866.0" departLane="random" departSpeed="10" />
    <vehicle id="S_W_199" type="standard_car" route="S_W" depart="866.0" departLane="random" departSpeed="10" />
    <vehicle id="W_S_200" type="standard_car" route="W_S" depart="867.0" departLane="random" departSpeed="10" />
    <vehicle id="S_N_201" type="standard_car" route="S_N" depart="871.0" departLane="random" departSpeed="10" />
    <vehicle id="E_W_202" type="standard_car" route="E_W" depart="875.0" departLane="random" departSpeed="10" />
    <vehicle id="S_N_203" type="standard_car" route="S_N" depart="878.0" departLane="random" departSpeed="10" />
    <vehicle id="N_S_204" type="standard_car" route="N_S" depart="879.0" departLane="random" departSpeed="10" />
    <vehicle id="N_S_205" type="standard_car" route="N_S" depart="880.0" departLane="random" departSpeed="10" />
    <vehicle id="E_S_206" type="standard_car" route="E_S" depart="881.0" departLane="random" departSpeed="10" />
    <vehicle id="W_N_207" type="standard_car" route="W_N" depart="882.0" departLane="random" departSpeed="10" />
    <vehicle id="S_N_208" type="standard_car" route="S_N" depart="882.0" departLane="random" departSpeed="10" />
    <vehicle id="N_W_209" type="standard_car" route="N_W" depart="889.0" departLane="random" departSpeed="10" />
    <vehicle id="S_N_210" type="standard_car" route="S_N" depart="894.0" departLane="random" departSpeed="10" />
    <vehicle id="S_N_211" type="standard_car" route="S_N" depart="895.0" departLane="random" departSpeed="10" />
    <vehicle id="E_S_212" type="standard_car" route="E_S" depart="896.0" departLane="random" departSpeed="10" />
    <vehicle id="S_N_213" type="standard_car" route="S_N" depart="904.0" departLane="random" departSpeed="10" />
    <vehicle id="S_W_214" type="standard_car" route="S_W" depart="904.0" departLane="random" departSpeed="10" />
    <vehicle id="W_N_215" type="standard_car" route="W_N" depart="905.0" departLane="random" departSpeed="10" />
    <vehicle id="S_N_216" type="standard_car" route="S_N" depart="907.0" departLane="random" departSpeed="10" />
    <vehicle id="E_W_217" type="standard_car" route="E_W" depart="907.0" departLane="random" departSpeed="10" />
    <vehicle id="N_S_218" type="standard_car" route="N_S" depart="912.0" departLane="random" departSpeed="10" />
    <vehicle id="W_E_219" type="standard_car" route="W_E" depart="912.0" departLane="random" departSpeed="10" />
    <vehicle id="E_W_220" type="standard_car" route="E_W" depart="915.0" departLane="random" departSpeed="10" />
    <vehicle id="S_N_221" type="standard_car" route="S_N" depart="916.0" departLane="random" departSpeed="10" />
    <vehicle id="W_S_222" type="standard_car" route="W_S" depart="918.0" departLane="random" departSpeed="10" />
    <vehicle id="E_W_223" type="standard_car" route="E_W" depart="922.0" departLane="random" departSpeed="10" />
    <vehicle id="N_S_224" type="standard_car" route="N_S" depart="924.0" departLane="random" departSpeed="10" />
    <vehicle id="S_N_225" type="standard_car" route="S_N" depart="929.0" departLane="random" departSpeed="10" />
    <vehicle id="E_W_226" type="standard_car" route="E_W" depart="936.0" departLane="random" departSpeed="10" />
    <vehicle id="E_N_227" type="standard_car" route="E_N" depart="940.0" departLane="random" departSpeed="10" />
    <vehicle id="S_N_228" type="standard_car" route="S_N" depart="940.0" departLane="random" departSpeed="10" />
    <vehicle id="N_S_229" type="standard_car" route="N_S" depart="942.0" departLane="random" departSpeed="10" />
    <vehicle id="E_W_230" type="standard_car" route="E_W" depart="945.0" departLane="random" departSpeed="10" />
    <vehicle id="S_N_231" type="standard_car" route="S_N" depart="945.0" departLane="random" departSpeed="10" />
    <vehicle id="S_W_232" type="standard_car" route="S_W" depart="950.0" departLane="random" departSpeed="10" />
    <vehicle id="W_E_233" type="standard_car" route="W_E" depart="951.0" departLane="random" departSpeed="10" />
    <vehicle id="N_E_234" type="standard_car" route="N_E" depart="953.0" departLane="random" departSpeed="10" />
    <vehicle id="E_W_235" type="standard_car" route="E_W" depart="955.0" departLane="random" departSpeed="10" />
    <vehicle id="W_E_236" type="standard_car" route="W_E" depart="957.0" departLane="random" departSpeed="10" />
    <vehicle id="E_W_237" type="standard_car" route="E_W" depart="959.0" departLane="random" departSpeed="10" />
    <vehicle id="E_N_238" type="standard_car" route="E_N" depart="963.0" departLane="random" departSpeed="10" />
    <vehicle id="W_N_239" type="standard_car" route="W_N" depart="965.0" departLane="random" departSpeed="10" />
    <vehicle id="N_W_240" type="standard_car" route="N_W" depart="974.0" departLane="random" departSpeed="10" />
    <vehicle id="S_W_241" type="standard_car" route="S_W" depart="977.0" departLane="random" departSpeed="10" />
    <vehicle id="E_S_242" type="standard_car" route="E_S" depart="981.0" departLane="random" departSpeed="10" />
    <vehicle id="E_W_243" type="standard_car" route="E_W" depart="984.0" departLane="random" departSpeed="10" />
    <vehicle id="N_S_244" type="standard_car" route="N_S" depart="986.0" departLane="random" departSpeed="10" />
    <vehicle id="N_S_245" type="standard_car" route="N_S" depart="990.0" departLane="random" departSpeed="10" />
    <vehicle id="S_N_246" type="standard_car" route="S_N" depart="990.0" departLane="random" departSpeed="10" />
    <vehicle id="W_E_247" type="standard_car" route="W_E" depart="991.0" departLane="random" departSpeed="10" />
    <vehicle id="S_N_248" type="standard_car" route="S_N" depart="994.0" departLane="random" departSpeed="10" />
    <vehicle id="E_W_249" type="standard_car" route="E_W" depart="998.0" departLane="random" departSpeed="10" />
    <vehicle id="S_N_250" type="standard_car" route="S_N" depart="998.0" departLane="random" departSpeed="10" />
    <vehicle id="N_S_251" type="standard_car" route="N_S" depart="1002.0" departLane="random" departSpeed="10" />
    <vehicle id="N_E_252" type="standard_car" route="N_E" depart="1003.0" departLane="random" departSpeed="10" />
    <vehicle id="S_N_253" type="standard_car" route="S_N" depart="1006.0" departLane="random" departSpeed="10" />
    <vehicle id="W_S_254" type="standard_car" route="W_S" depart="1007.0" departLane="random" departSpeed="10" />
    <vehicle id="S_N_255" type="standard_car" route="S_N" depart="1010.0" departLane="random" departSpeed="10" />
    <vehicle id="S_N_256" type="standard_car" route="S_N" depart="1010.0" departLane="random" departSpeed="10" />
    <vehicle id="E_W_257" type="standard_car" route="E_W" depart="1010.0" departLane="random" departSpeed="10" />
    <vehicle id="S_N_258" type="standard_car" route="S_N" depart="1010.0" departLane="random" departSpeed="10" />
    <vehicle id="E_W_259" type="standard_car" route="E_W" depart="1011.0" departLane="random" departSpeed="10" />