<?xml version="1.0" encoding="UTF-8"?>

<!-- generated on Fri Nov 22 16:46:44 2019 by SUMO netconvert Version 0.25.0
<?xml version="1.0" encoding="UTF-8"?>

<configuration xmlns:xsi="http://www.w3.org/2001/XMLSchema-instance" xsi:noNamespaceSchemaLocation="http://sumo.dlr.de/xsd/netconvertConfiguration.xsd">

    <input>
        <node-files value="cross.nod.xml"/>
        <edge-files value="cross.edg.xml"/>
        <connection-files value="cross.con.xml"/>
    </input>

    <output>
        <output-file value="cross.net.xml"/>
    </output>

    <report>
        <verbose value="true"/>
    </report>

</configuration>
-->

<net version="0.25" xmlns:xsi="http://www.w3.org/2001/XMLSchema-instance" xsi:noNamespaceSchemaLocation="http://sumo.dlr.de/xsd/net_file.xsd">

    <location netOffset="60.00,60.00" convBoundary="0.00,0.00,120.00,120.00" origBoundary="-60.00,-60.00,60.00,60.00" projParameter="!"/>

    <edge id=":C_0" function="internal">
        <lane id=":C_0_0" index="0" speed="15.28" length="9.36" shape="51.75,71.35 51.56,68.55 50.98,66.55 50.01,65.35 48.65,64.95"/>
        <lane id=":C_0_1" index="1" speed="15.28" length="9.36" shape="51.75,71.35 51.56,67.11 50.98,64.07 50.01,62.26 48.65,61.65"/>
    </edge>
    <edge id=":C_2" function="internal">
        <lane id=":C_2_0" index="0" speed="15.28" length="23.01" shape="51.75,71.35 52.27,64.37 53.40,59.45 54.53,54.80 55.05,48.65"/>
        <lane id=":C_2_1" index="1" speed="15.28" length="23.01" shape="55.05,71.35 55.57,64.37 56.70,59.45 57.83,54.80 58.35,48.65"/>
    </edge>
    <edge id=":C_4" function="internal">
        <lane id=":C_4_0" index="0" speed="15.28" length="11.61" shape="58.35,71.35 59.16,64.22 61.60,59.12 62.07,58.77"/>
        <lane id=":C_4_1" index="1" speed="15.28" length="11.61" shape="58.35,71.35 59.16,65.66 61.26,62.17"/>
    </edge>
    <edge id=":C_24" function="internal">
        <lane id=":C_24_0" index="0" speed="15.28" length="10.28" shape="62.07,58.77 65.66,56.07 71.35,55.05"/>
    </edge>
    <edge id=":C_25" function="internal">
        <lane id=":C_25_0" index="0" speed="15.28" length="11.15" shape="61.26,62.17 61.60,61.60 65.66,59.16 71.35,58.35"/>
    </edge>
    <edge id=":C_6" function="internal">
        <lane id=":C_6_0" index="0" speed="15.28" length="9.36" shape="71.35,68.25 68.55,68.44 66.55,69.03 65.35,69.99 64.95,71.35"/>
        <lane id=":C_6_1" index="1" speed="15.28" length="9.36" shape="71.35,68.25 67.11,68.44 64.07,69.03 62.26,69.99 61.65,71.35"/>
    </edge>
    <edge id=":C_8" function="internal">
        <lane id=":C_8_0" index="0" speed="15.28" length="23.01" shape="71.35,68.25 64.37,67.73 59.45,66.60 54.80,65.47 48.65,64.95"/>
        <lane id=":C_8_1" index="1" speed="15.28" length="23.01" shape="71.35,64.95 64.37,64.43 59.45,63.30 54.80,62.17 48.65,61.65"/>
    </edge>
    <edge id=":C_10" function="internal">
        <lane id=":C_10_0" index="0" speed="15.28" length="11.61" shape="71.35,61.65 64.22,60.84 59.12,58.40 58.77,57.93"/>
        <lane id=":C_10_1" index="1" speed="15.28" length="11.61" shape="71.35,61.65 65.66,60.84 62.17,58.74"/>
    </edge>
    <edge id=":C_26" function="internal">
        <lane id=":C_26_0" index="0" speed="15.28" length="10.28" shape="58.77,57.93 56.07,54.34 55.05,48.65"/>
    </edge>
    <edge id=":C_27" function="internal">
        <lane id=":C_27_0" index="0" speed="15.28" length="11.15" shape="62.17,58.74 61.60,58.40 59.16,54.34 58.35,48.65"/>
    </edge>
    <edge id=":C_12" function="internal">
        <lane id=":C_12_0" index="0" speed="15.28" length="9.36" shape="68.25,48.65 68.44,51.45 69.03,53.45 69.99,54.65 71.35,55.05"/>
        <lane id=":C_12_1" index="1" speed="15.28" length="9.36" shape="68.25,48.65 68.44,52.89 69.03,55.92 69.99,57.74 71.35,58.35"/>
    </edge>
    <edge id=":C_14" function="internal">
        <lane id=":C_14_0" index="0" speed="15.28" length="23.01" shape="68.25,48.65 67.73,55.63 66.60,60.55 65.47,65.20 64.95,71.35"/>
        <lane id=":C_14_1" index="1" speed="15.28" length="23.01" shape="64.95,48.65 64.43,55.63 63.30,60.55 62.17,65.20 61.65,71.35"/>
    </edge>
    <edge id=":C_16" function="internal">
        <lane id=":C_16_0" index="0" speed="15.28" length="11.61" shape="61.65,48.65 60.84,55.78 58.40,60.88 57.93,61.23"/>
        <lane id=":C_16_1" index="1" speed="15.28" length="11.61" shape="61.65,48.65 60.84,54.34 58.74,57.83"/>
    </edge>
    <edge id=":C_28" function="internal">
        <lane id=":C_28_0" index="0" speed="15.28" length="10.28" shape="57.93,61.23 54.34,63.93 48.65,64.95"/>
    </edge>
    <edge id=":C_29" function="internal">
        <lane id=":C_29_0" index="0" speed="15.28" length="11.15" shape="58.74,57.83 58.40,58.40 54.34,60.84 48.65,61.65"/>
    </edge>
    <edge id=":C_18" function="internal">
        <lane id=":C_18_0" index="0" speed="15.28" length="9.36" shape="48.65,51.75 51.45,51.56 53.45,50.98 54.65,50.01 55.05,48.65"/>
        <lane id=":C_18_1" index="1" speed="15.28" length="9.36" shape="48.65,51.75 52.89,51.56 55.92,50.98 57.74,50.01 58.35,48.65"/>
    </edge>
    <edge id=":C_20" function="internal">
        <lane id=":C_20_0" index="0" speed="15.28" length="23.01" shape="48.65,51.75 55.63,52.27 60.55,53.40 65.20,54.53 71.35,55.05"/>
        <lane id=":C_20_1" index="1" speed="15.28" length="23.01" shape="48.65,55.05 55.63,55.57 60.55,56.70 65.20,57.83 71.35,58.35"/>
    </edge>
    <edge id=":C_22" function="internal">
        <lane id=":C_22_0" index="0" speed="15.28" length="11.61" shape="48.65,58.35 55.78,59.16 60.88,61.60 61.23,62.07"/>
        <lane id=":C_22_1" index="1" speed="15.28" length="11.61" shape="48.65,58.35 54.34,59.16 57.83,61.26"/>
    </edge>
    <edge id=":C_30" function="internal">
        <lane id=":C_30_0" index="0" speed="15.28" length="10.28" shape="61.23,62.07 63.93,65.66 64.95,71.35"/>
    </edge>
    <edge id=":C_31" function="internal">
        <lane id=":C_31_0" index="0" speed="15.28" length="11.15" shape="57.83,61.26 58.40,61.60 60.84,65.66 61.65,71.35"/>
    </edge>
    <edge id=":E_0" function="internal">
        <lane id=":E_0_0" index="0" speed="15.28" length="0.10" shape="110.00,68.25 110.00,68.25"/>
        <lane id=":E_0_1" index="1" speed="15.28" length="0.10" shape="110.00,64.95 110.00,64.95"/>
        <lane id=":E_0_2" index="2" speed="15.28" length="0.10" shape="110.00,61.65 110.00,61.65"/>
    </edge>
    <edge id=":E_3" function="internal">
        <lane id=":E_3_0" index="0" speed="15.28" length="2.41" shape="110.00,61.65 108.76,60.83 108.35,60.00"/>
    </edge>
    <edge id=":E_7" function="internal">
        <lane id=":E_7_0" index="0" speed="15.28" length="2.41" shape="108.35,60.00 108.76,59.17 110.00,58.35"/>
    </edge>
    <edge id=":E_4" function="internal">
        <lane id=":E_4_0" index="0" speed="15.28" length="0.10" shape="110.00,55.05 110.00,55.05"/>
        <lane id=":E_4_1" index="1" speed="15.28" length="0.10" shape="110.00,58.35 110.00,58.35"/>
    </edge>
    <edge id=":E_6" function="internal">
        <lane id=":E_6_0" index="0" speed="15.28" length="2.41" shape="110.00,58.35 111.24,59.17 111.65,60.00"/>
    </edge>
    <edge id=":E_8" function="internal">
        <lane id=":E_8_0" index="0" speed="15.28" length="2.41" shape="111.65,60.00 111.24,60.83 110.00,61.65"/>
    </edge>
    <edge id=":EE_0" function="internal">
        <lane id=":EE_0_0" index="0" speed="15.28" length="4.82" shape="120.00,58.35 121.24,59.17 121.65,60.00 121.24,60.83 120.00,61.65"/>
    </edge>
    <edge id=":EN_0" function="internal">
        <lane id=":EN_0_0" index="0" speed="15.28" length="4.82" shape="61.65,120.00 60.83,121.24 60.00,121.65 59.17,121.24 58.35,120.00"/>
    </edge>
    <edge id=":ES_0" function="internal">
        <lane id=":ES_0_0" index="0" speed="15.28" length="4.82" shape="58.35,0.00 59.17,-1.24 60.00,-1.65 60.83,-1.24 61.65,0.00"/>
    </edge>
    <edge id=":EW_0" function="internal">
        <lane id=":EW_0_0" index="0" speed="15.28" length="4.82" shape="0.00,61.65 -1.24,60.83 -1.65,60.00 -1.24,59.17 0.00,58.35"/>
    </edge>
    <edge id=":N_0" function="internal">
        <lane id=":N_0_0" index="0" speed="15.28" length="0.10" shape="51.75,110.00 51.75,110.00"/>
        <lane id=":N_0_1" index="1" speed="15.28" length="0.10" shape="55.05,110.00 55.05,110.00"/>
        <lane id=":N_0_2" index="2" speed="15.28" length="0.10" shape="58.35,110.00 58.35,110.00"/>
    </edge>
    <edge id=":N_3" function="internal">
        <lane id=":N_3_0" index="0" speed="15.28" length="2.41" shape="58.35,110.00 59.17,108.76 60.00,108.35"/>
    </edge>
    <edge id=":N_7" function="internal">
        <lane id=":N_7_0" index="0" speed="15.28" length="2.41" shape="60.00,108.35 60.83,108.76 61.65,110.00"/>
    </edge>
    <edge id=":N_4" function="internal">
        <lane id=":N_4_0" index="0" speed="15.28" length="0.10" shape="64.95,110.00 64.95,110.00"/>
        <lane id=":N_4_1" index="1" speed="15.28" length="0.10" shape="61.65,110.00 61.65,110.00"/>
    </edge>
    <edge id=":N_6" function="internal">
        <lane id=":N_6_0" index="0" speed="15.28" length="2.41" shape="61.65,110.00 60.83,111.24 60.00,111.65"/>
    </edge>
    <edge id=":N_8" function="internal">
        <lane id=":N_8_0" index="0" speed="15.28" length="2.41" shape="60.00,111.65 59.17,111.24 58.35,110.00"/>
    </edge>
    <edge id=":S_0" function="internal">
        <lane id=":S_0_0" index="0" speed="15.28" length="0.10" shape="55.05,10.00 55.05,10.00"/>
        <lane id=":S_0_1" index="1" speed="15.28" length="0.10" shape="58.35,10.00 58.35,10.00"/>
    </edge>
    <edge id=":S_2" function="internal">
        <lane id=":S_2_0" index="0" speed="15.28" length="2.41" shape="58.35,10.00 59.17,8.76 60.00,8.35"/>
    </edge>
    <edge id=":S_7" function="internal">
        <lane id=":S_7_0" index="0" speed="15.28" length="2.41" shape="60.00,8.35 60.83,8.76 61.65,10.00"/>
    </edge>
    <edge id=":S_3" function="internal">
        <lane id=":S_3_0" index="0" speed="15.28" length="0.10" shape="68.25,10.00 68.25,10.00"/>
        <lane id=":S_3_1" index="1" speed="15.28" length="0.10" shape="64.95,10.00 64.95,10.00"/>
        <lane id=":S_3_2" index="2" speed="15.28" length="0.10" shape="61.65,10.00 61.65,10.00"/>
    </edge>
    <edge id=":S_6" function="internal">
        <lane id=":S_6_0" index="0" speed="15.28" length="2.41" shape="61.65,10.00 60.83,11.24 60.00,11.65"/>
    </edge>
    <edge id=":S_8" function="internal">
        <lane id=":S_8_0" index="0" speed="15.28" length="2.41" shape="60.00,11.65 59.17,11.24 58.35,10.00"/>
    </edge>
    <edge id=":W_0" function="internal">
        <lane id=":W_0_0" index="0" speed="15.28" length="0.10" shape="10.00,64.95 10.00,64.95"/>
        <lane id=":W_0_1" index="1" speed="15.28" length="0.10" shape="10.00,61.65 10.00,61.65"/>
    </edge>
    <edge id=":W_2" function="internal">
        <lane id=":W_2_0" index="0" speed="15.28" length="2.41" shape="10.00,61.65 8.76,60.83 8.35,60.00"/>
    </edge>
    <edge id=":W_7" function="internal">
        <lane id=":W_7_0" index="0" speed="15.28" length="2.41" shape="8.35,60.00 8.76,59.17 10.00,58.35"/>
    </edge>
    <edge id=":W_3" function="internal">
        <lane id=":W_3_0" index="0" speed="15.28" length="0.10" shape="10.00,51.75 10.00,51.75"/>
        <lane id=":W_3_1" index="1" speed="15.28" length="0.10" shape="10.00,55.05 10.00,55.05"/>
        <lane id=":W_3_2" index="2" speed="15.28" length="0.10" shape="10.00,58.35 10.00,58.35"/>
    </edge>
    <edge id=":W_6" function="internal">
        <lane id=":W_6_0" index="0" speed="15.28" length="2.41" shape="10.00,58.35 11.24,59.17 11.65,60.00"/>
    </edge>
    <edge id=":W_8" function="internal">
        <lane id=":W_8_0" index="0" speed="15.28" length="2.41" shape="11.65,60.00 11.24,60.83 10.00,61.65"/>
    </edge>

    <edge id="EEi" from="E" to="EE" priority="-1">
        <lane id="EEi_0" index="0" speed="19.44" length="10.00" shape="110.00,55.05 120.00,55.05"/>
        <lane id="EEi_1" index="1" speed="19.44" length="10.00" shape="110.00,58.35 120.00,58.35"/>
    </edge>
    <edge id="EEo" from="EE" to="E" priority="-1">
        <lane id="EEo_0" index="0" speed="11.11" length="10.00" shape="120.00,68.25 110.00,68.25"/>
        <lane id="EEo_1" index="1" speed="11.11" length="10.00" shape="120.00,64.95 110.00,64.95"/>
        <lane id="EEo_2" index="2" speed="11.11" length="10.00" shape="120.00,61.65 110.00,61.65"/>
    </edge>
    <edge id="ENi" from="N" to="EN" priority="-1">
        <lane id="ENi_0" index="0" speed="19.44" length="10.00" shape="64.95,110.00 64.95,120.00"/>
        <lane id="ENi_1" index="1" speed="19.44" length="10.00" shape="61.65,110.00 61.65,120.00"/>
    </edge>
    <edge id="ENo" from="EN" to="N" priority="-1">
        <lane id="ENo_0" index="0" speed="11.11" length="10.00" shape="51.75,120.00 51.75,110.00"/>
        <lane id="ENo_1" index="1" speed="11.11" length="10.00" shape="55.05,120.00 55.05,110.00"/>
        <lane id="ENo_2" index="2" speed="11.11" length="10.00" shape="58.35,120.00 58.35,110.00"/>
    </edge>
    <edge id="ESi" from="S" to="ES" priority="-1">
        <lane id="ESi_0" index="0" speed="19.44" length="10.00" shape="55.05,10.00 55.05,0.00"/>
        <lane id="ESi_1" index="1" speed="19.44" length="10.00" shape="58.35,10.00 58.35,0.00"/>
    </edge>
    <edge id="ESo" from="ES" to="S" priority="-1">
        <lane id="ESo_0" index="0" speed="11.11" length="10.00" shape="68.25,0.00 68.25,10.00"/>
        <lane id="ESo_1" index="1" speed="11.11" length="10.00" shape="64.95,0.00 64.95,10.00"/>
        <lane id="ESo_2" index="2" speed="11.11" length="10.00" shape="61.65,0.00 61.65,10.00"/>
    </edge>
    <edge id="EWi" from="W" to="EW" priority="-1">
        <lane id="EWi_0" index="0" speed="19.44" length="10.00" shape="10.00,64.95 0.00,64.95"/>
        <lane id="EWi_1" index="1" speed="19.44" length="10.00" shape="10.00,61.65 0.00,61.65"/>
    </edge>
    <edge id="EWo" from="EW" to="W" priority="-1">
        <lane id="EWo_0" index="0" speed="11.11" length="10.00" shape="0.00,51.75 10.00,51.75"/>
        <lane id="EWo_1" index="1" speed="11.11" length="10.00" shape="0.00,55.05 10.00,55.05"/>
        <lane id="EWo_2" index="2" speed="11.11" length="10.00" shape="0.00,58.35 10.00,58.35"/>
    </edge>
    <edge id="Ei" from="E" to="C" priority="-1">
        <lane id="Ei_0" index="0" speed="19.44" length="38.65" shape="110.00,68.25 71.35,68.25"/>
        <lane id="Ei_1" index="1" speed="19.44" length="38.65" shape="110.00,64.95 71.35,64.95"/>
        <lane id="Ei_2" index="2" speed="19.44" length="38.65" shape="110.00,61.65 71.35,61.65"/>
    </edge>
    <edge id="Eo" from="C" to="E" priority="-1">
        <lane id="Eo_0" index="0" speed="11.11" length="38.65" shape="71.35,55.05 110.00,55.05"/>
        <lane id="Eo_1" index="1" speed="11.11" length="38.65" shape="71.35,58.35 110.00,58.35"/>
    </edge>
    <edge id="Ni" from="N" to="C" priority="-1">
        <lane id="Ni_0" index="0" speed="19.44" length="38.65" shape="51.75,110.00 51.75,71.35"/>
        <lane id="Ni_1" index="1" speed="19.44" length="38.65" shape="55.05,110.00 55.05,71.35"/>
        <lane id="Ni_2" index="2" speed="19.44" length="38.65" shape="58.35,110.00 58.35,71.35"/>
    </edge>
    <edge id="No" from="C" to="N" priority="-1">
        <lane id="No_0" index="0" speed="11.11" length="38.65" shape="64.95,71.35 64.95,110.00"/>
        <lane id="No_1" index="1" speed="11.11" length="38.65" shape="61.65,71.35 61.65,110.00"/>
    </edge>
    <edge id="Si" from="S" to="C" priority="-1">
        <lane id="Si_0" index="0" speed="19.44" length="38.65" shape="68.25,10.00 68.25,48.65"/>
        <lane id="Si_1" index="1" speed="19.44" length="38.65" shape="64.95,10.00 64.95,48.65"/>
        <lane id="Si_2" index="2" speed="19.44" length="38.65" shape="61.65,10.00 61.65,48.65"/>
    </edge>
    <edge id="So" from="C" to="S" priority="-1">
        <lane id="So_0" index="0" speed="11.11" length="38.65" shape="55.05,48.65 55.05,10.00"/>
        <lane id="So_1" index="1" speed="11.11" length="38.65" shape="58.35,48.65 58.35,10.00"/>
    </edge>
    <edge id="Wi" from="W" to="C" priority="-1">
        <lane id="Wi_0" index="0" speed="19.44" length="38.65" shape="10.00,51.75 48.65,51.75"/>
        <lane id="Wi_1" index="1" speed="19.44" length="38.65" shape="10.00,55.05 48.65,55.05"/>
        <lane id="Wi_2" index="2" speed="19.44" length="38.65" shape="10.00,58.35 48.65,58.35"/>
    </edge>
    <edge id="Wo" from="C" to="W" priority="-1">
        <lane id="Wo_0" index="0" speed="11.11" length="38.65" shape="48.65,64.95 10.00,64.95"/>
        <lane id="Wo_1" index="1" speed="11.11" length="38.65" shape="48.65,61.65 10.00,61.65"/>
    </edge>

    <tlLogic id="C" type="static" programID="0" offset="0">
        <phase duration="27" state="GGGGggrrrrrrGGGGggrrrrrr"/>
        <phase duration="6" state="yyyyggrrrrrryyyyggrrrrrr"/>
        <phase duration="6" state="rrrrGGrrrrrrrrrrGGrrrrrr"/>
        <phase duration="6" state="rrrryyrrrrrrrrrryyrrrrrr"/>
        <phase duration="27" state="rrrrrrGGGGggrrrrrrGGGGgg"/>
        <phase duration="6" state="rrrrrryyyyggrrrrrryyyygg"/>
        <phase duration="6" state="rrrrrrrrrrGGrrrrrrrrrrGG"/>
        <phase duration="6" state="rrrrrrrrrryyrrrrrrrrrryy"/>
    </tlLogic>

    <junction id="C" type="traffic_light" x="60.00" y="60.00" incLanes="Ni_0 Ni_1 Ni_2 Ei_0 Ei_1 Ei_2 Si_0 Si_1 Si_2 Wi_0 Wi_1 Wi_2" intLanes=":C_0_0 :C_0_1 :C_2_0 :C_2_1 :C_24_0 :C_25_0 :C_6_0 :C_6_1 :C_8_0 :C_8_1 :C_26_0 :C_27_0 :C_12_0 :C_12_1 :C_14_0 :C_14_1 :C_28_0 :C_29_0 :C_18_0 :C_18_1 :C_20_0 :C_20_1 :C_30_0 :C_31_0" shape="50.15,71.35 66.55,71.35 71.35,69.85 71.35,53.45 69.85,48.65 53.45,48.65 48.65,50.15 48.65,66.55">
        <request index="0" response="000000000000000000000000" foes="000000110000001100000000" cont="0"/>
        <request index="1" response="000000000000000000000000" foes="000000110000001100000000" cont="0"/>
        <request index="2" response="000000000000000000000000" foes="111111110000111100000000" cont="0"/>
        <request index="3" response="000000000000000000000000" foes="111111110000111100000000" cont="0"/>
        <request index="4" response="000000001111000000000000" foes="111100001111111100000000" cont="1"/>
        <request index="5" response="000000001111000000000000" foes="111100001111111100000000" cont="1"/>
        <request index="6" response="000000001100000000000000" foes="110000001100000000000000" cont="0"/>
        <request index="7" response="000000001100000000000000" foes="110000001100000000000000" cont="0"/>
        <request index="8" response="000000111100000000111111" foes="110000111100000000111111" cont="0"/>
        <request index="9" response="000000111100000000111111" foes="110000111100000000111111" cont="0"/>
        <request index="10" response="001111111100000000111100" foes="001111111100000000111100" cont="1"/>
        <request index="11" response="001111111100000000111100" foes="001111111100000000111100" cont="1"/>
        <request index="12" response="000000000000000000000000" foes="001100000000000000110000" cont="0"/>
        <request index="13" response="000000000000000000000000" foes="001100000000000000110000" cont="0"/>
        <request index="14" response="000000000000000000000000" foes="111100000000111111110000" cont="0"/>
        <request index="15" response="000000000000000000000000" foes="111100000000111111110000" cont="0"/>
        <request index="16" response="000000000000000000001111" foes="111100000000111100001111" cont="1"/>
        <request index="17" response="000000000000000000001111" foes="111100000000111100001111" cont="1"/>
        <request index="18" response="000000000000000000001100" foes="000000000000110000001100" cont="0"/>
        <request index="19" response="000000000000000000001100" foes="000000000000110000001100" cont="0"/>
        <request index="20" response="000000111111000000111100" foes="000000111111110000111100" cont="0"/>
        <request index="21" response="000000111111000000111100" foes="000000111111110000111100" cont="0"/>
        <request index="22" response="000000111100001111111100" foes="000000111100001111111100" cont="1"/>
        <request index="23" response="000000111100001111111100" foes="000000111100001111111100" cont="1"/>
    </junction>
    <junction id="E" type="priority" x="110.00" y="60.00" incLanes="EEo_0 EEo_1 EEo_2 Eo_0 Eo_1" intLanes=":E_0_0 :E_0_1 :E_0_2 :E_7_0 :E_4_0 :E_4_1 :E_8_0" shape="110.00,69.85 110.00,53.45 110.00,69.85">
        <request index="0" response="0000000" foes="1000000" cont="0"/>
        <request index="1" response="0000000" foes="1000000" cont="0"/>
        <request index="2" response="0000000" foes="1000000" cont="0"/>
        <request index="3" response="0110000" foes="0110000" cont="1"/>
        <request index="4" response="0000000" foes="0001000" cont="0"/>
        <request index="5" response="0000000" foes="0001000" cont="0"/>
        <request index="6" response="0000111" foes="0000111" cont="1"/>
    </junction>
    <junction id="EE" type="priority" x="120.00" y="60.00" incLanes="EEi_0 EEi_1" intLanes=":EE_0_0" shape="120.00,60.05 120.00,69.85 120.00,53.45 120.00,59.95">
        <request index="0" response="0" foes="0" cont="0"/>
    </junction>
    <junction id="EN" type="priority" x="60.00" y="120.00" incLanes="ENi_0 ENi_1" intLanes=":EN_0_0" shape="59.95,120.00 50.15,120.00 66.55,120.00 60.05,120.00">
        <request index="0" response="0" foes="0" cont="0"/>
    </junction>
    <junction id="ES" type="priority" x="60.00" y="0.00" incLanes="ESi_0 ESi_1" intLanes=":ES_0_0" shape="60.05,0.00 69.85,0.00 53.45,0.00 59.95,0.00">
        <request index="0" response="0" foes="0" cont="0"/>
    </junction>
    <junction id="EW" type="priority" x="0.00" y="60.00" incLanes="EWi_0 EWi_1" intLanes=":EW_0_0" shape="0.00,59.95 0.00,50.15 0.00,66.55 0.00,60.05">
        <request index="0" response="0" foes="0" cont="0"/>
    </junction>
    <junction id="N" type="priority" x="60.00" y="110.00" incLanes="ENo_0 ENo_1 ENo_2 No_0 No_1" intLanes=":N_0_0 :N_0_1 :N_0_2 :N_7_0 :N_4_0 :N_4_1 :N_8_0" shape="50.15,110.00 66.55,110.00 50.15,110.00">
        <request index="0" response="0000000" foes="1000000" cont="0"/>
        <request index="1" response="0000000" foes="1000000" cont="0"/>
        <request index="2" response="0000000" foes="1000000" cont="0"/>
        <request index="3" response="0110000" foes="0110000" cont="1"/>
        <request index="4" response="0000000" foes="0001000" cont="0"/>
        <request index="5" response="0000000" foes="0001000" cont="0"/>
        <request index="6" response="0000111" foes="0000111" cont="1"/>
    </junction>
    <junction id="S" type="priority" x="60.00" y="10.00" incLanes="So_0 So_1 ESo_0 ESo_1 ESo_2" intLanes=":S_0_0 :S_0_1 :S_7_0 :S_3_0 :S_3_1 :S_3_2 :S_8_0" shape="53.45,10.00 69.85,10.00 53.45,10.00">
        <request index="0" response="0000000" foes="1000000" cont="0"/>
        <request index="1" response="0000000" foes="1000000" cont="0"/>
        <request index="2" response="0111000" foes="0111000" cont="1"/>
        <request index="3" response="0000000" foes="0000100" cont="0"/>
        <request index="4" response="0000000" foes="0000100" cont="0"/>
        <request index="5" response="0000000" foes="0000100" cont="0"/>
        <request index="6" response="0000011" foes="0000011" cont="1"/>
    </junction>
    <junction id="W" type="priority" x="10.00" y="60.00" incLanes="Wo_0 Wo_1 EWo_0 EWo_1 EWo_2" intLanes=":W_0_0 :W_0_1 :W_7_0 :W_3_0 :W_3_1 :W_3_2 :W_8_0" shape="10.00,66.55 10.00,50.15 10.00,66.55">
        <request index="0" response="0000000" foes="1000000" cont="0"/>
        <request index="1" response="0000000" foes="1000000" cont="0"/>
        <request index="2" response="0111000" foes="0111000" cont="1"/>
        <request index="3" response="0000000" foes="0000100" cont="0"/>
        <request index="4" response="0000000" foes="0000100" cont="0"/>
        <request index="5" response="0000000" foes="0000100" cont="0"/>
        <request index="6" response="0000011" foes="0000011" cont="1"/>
    </junction>

    <junction id=":C_24_0" type="internal" x="62.07" y="58.77" incLanes=":C_4_0 Si_0 Si_1" intLanes=":C_8_0 :C_8_1 :C_10_0 :C_10_1 :C_12_0 :C_12_1 :C_14_0 :C_14_1 :C_20_0 :C_20_1 :C_22_0 :C_22_1"/>
    <junction id=":C_25_0" type="internal" x="61.26" y="62.17" incLanes=":C_4_1 Si_0 Si_1" intLanes=":C_8_0 :C_8_1 :C_10_0 :C_10_1 :C_12_0 :C_12_1 :C_14_0 :C_14_1 :C_20_0 :C_20_1 :C_22_0 :C_22_1"/>
    <junction id=":C_26_0" type="internal" x="58.77" y="57.93" incLanes=":C_10_0 Wi_0 Wi_1" intLanes=":C_2_0 :C_2_1 :C_4_0 :C_4_1 :C_14_0 :C_14_1 :C_16_0 :C_16_1 :C_18_0 :C_18_1 :C_20_0 :C_20_1"/>
    <junction id=":C_27_0" type="internal" x="62.17" y="58.74" incLanes=":C_10_1 Wi_0 Wi_1" intLanes=":C_2_0 :C_2_1 :C_4_0 :C_4_1 :C_14_0 :C_14_1 :C_16_0 :C_16_1 :C_18_0 :C_18_1 :C_20_0 :C_20_1"/>
    <junction id=":C_28_0" type="internal" x="57.93" y="61.23" incLanes=":C_16_0 Ni_0 Ni_1" intLanes=":C_0_0 :C_0_1 :C_2_0 :C_2_1 :C_8_0 :C_8_1 :C_10_0 :C_10_1 :C_20_0 :C_20_1 :C_22_0 :C_22_1"/>
    <junction id=":C_29_0" type="internal" x="58.74" y="57.83" incLanes=":C_16_1 Ni_0 Ni_1" intLanes=":C_0_0 :C_0_1 :C_2_0 :C_2_1 :C_8_0 :C_8_1 :C_10_0 :C_10_1 :C_20_0 :C_20_1 :C_22_0 :C_22_1"/>
    <junction id=":C_30_0" type="internal" x="61.23" y="62.07" incLanes=":C_22_0 Ei_0 Ei_1" intLanes=":C_2_0 :C_2_1 :C_4_0 :C_4_1 :C_6_0 :C_6_1 :C_8_0 :C_8_1 :C_14_0 :C_14_1 :C_16_0 :C_16_1"/>
    <junction id=":C_31_0" type="internal" x="57.83" y="61.26" incLanes=":C_22_1 Ei_0 Ei_1" intLanes=":C_2_0 :C_2_1 :C_4_0 :C_4_1 :C_6_0 :C_6_1 :C_8_0 :C_8_1 :C_14_0 :C_14_1 :C_16_0 :C_16_1"/>
    <junction id=":E_7_0" type="internal" x="108.35" y="60.00" incLanes=":E_3_0 Eo_0 Eo_1" intLanes=":E_4_0 :E_4_1"/>
    <junction id=":E_8_0" type="internal" x="111.65" y="60.00" incLanes=":E_6_0 EEo_0 EEo_1 EEo_2" intLanes=":E_0_0 :E_0_1 :E_0_2"/>
    <junction id=":N_7_0" type="internal" x="60.00" y="108.35" incLanes=":N_3_0 No_0 No_1" intLanes=":N_4_0 :N_4_1"/>
    <junction id=":N_8_0" type="internal" x="60.00" y="111.65" incLanes=":N_6_0 ENo_0 ENo_1 ENo_2" intLanes=":N_0_0 :N_0_1 :N_0_2"/>
    <junction id=":S_7_0" type="internal" x="60.00" y="8.35" incLanes=":S_2_0 ESo_0 ESo_1 ESo_2" intLanes=":S_3_0 :S_3_1 :S_3_2"/>
    <junction id=":S_8_0" type="internal" x="60.00" y="11.65" incLanes=":S_6_0 So_0 So_1" intLanes=":S_0_0 :S_0_1"/>
    <junction id=":W_7_0" type="internal" x="8.35" y="60.00" incLanes=":W_2_0 EWo_0 EWo_1 EWo_2" intLanes=":W_3_0 :W_3_1 :W_3_2"/>
    <junction id=":W_8_0" type="internal" x="11.65" y="60.00" incLanes=":W_6_0 Wo_0 Wo_1" intLanes=":W_0_0 :W_0_1"/>

    <connection from="EEi" to="EEo" fromLane="1" toLane="2" via=":EE_0_0" dir="t" state="M"/>
    <connection from="EEo" to="Ei" fromLane="0" toLane="0" via=":E_0_0" dir="s" state="M"/>
    <connection from="EEo" to="Ei" fromLane="1" toLane="1" via=":E_0_1" dir="s" state="M"/>
    <connection from="EEo" to="Ei" fromLane="2" toLane="2" via=":E_0_2" dir="s" state="M"/>
    <connection from="EEo" to="EEi" fromLane="2" toLane="1" via=":E_3_0" dir="t" state="m"/>
    <connection from="ENi" to="ENo" fromLane="1" toLane="2" via=":EN_0_0" dir="t" state="M"/>
    <connection from="ENo" to="Ni" fromLane="0" toLane="0" via=":N_0_0" dir="s" state="M"/>
    <connection from="ENo" to="Ni" fromLane="1" toLane="1" via=":N_0_1" dir="s" state="M"/>
    <connection from="ENo" to="Ni" fromLane="2" toLane="2" via=":N_0_2" dir="s" state="M"/>
    <connection from="ENo" to="ENi" fromLane="2" toLane="1" via=":N_3_0" dir="t" state="m"/>
    <connection from="ESi" to="ESo" fromLane="1" toLane="2" via=":ES_0_0" dir="t" state="M"/>
    <connection from="ESo" to="Si" fromLane="0" toLane="0" via=":S_3_0" dir="s" state="M"/>
    <connection from="ESo" to="Si" fromLane="1" toLane="1" via=":S_3_1" dir="s" state="M"/>
    <connection from="ESo" to="Si" fromLane="2" toLane="2" via=":S_3_2" dir="s" state="M"/>
    <connection from="ESo" to="ESi" fromLane="2" toLane="1" via=":S_6_0" dir="t" state="m"/>
    <connection from="EWi" to="EWo" fromLane="1" toLane="2" via=":EW_0_0" dir="t" state="M"/>
    <connection from="EWo" to="Wi" fromLane="0" toLane="0" via=":W_3_0" dir="s" state="M"/>
    <connection from="EWo" to="Wi" fromLane="1" toLane="1" via=":W_3_1" dir="s" state="M"/>
    <connection from="EWo" to="Wi" fromLane="2" toLane="2" via=":W_3_2" dir="s" state="M"/>
    <connection from="EWo" to="EWi" fromLane="2" toLane="1" via=":W_6_0" dir="t" state="m"/>
    <connection from="Ei" to="No" fromLane="0" toLane="0" via=":C_6_0" tl="C" linkIndex="6" dir="r" state="o"/>
    <connection from="Ei" to="No" fromLane="0" toLane="1" via=":C_6_1" tl="C" linkIndex="7" dir="r" state="o"/>
    <connection from="Ei" to="Wo" fromLane="0" toLane="0" via=":C_8_0" tl="C" linkIndex="8" dir="s" state="o"/>
    <connection from="Ei" to="Wo" fromLane="1" toLane="1" via=":C_8_1" tl="C" linkIndex="9" dir="s" state="o"/>
    <connection from="Ei" to="So" fromLane="2" toLane="0" via=":C_10_0" tl="C" linkIndex="10" dir="l" state="o"/>
    <connection from="Ei" to="So" fromLane="2" toLane="1" via=":C_10_1" tl="C" linkIndex="11" dir="l" state="o"/>
    <connection from="Eo" to="EEi" fromLane="0" toLane="0" via=":E_4_0" dir="s" state="M"/>
    <connection from="Eo" to="EEi" fromLane="1" toLane="1" via=":E_4_1" dir="s" state="M"/>
    <connection from="Eo" to="Ei" fromLane="1" toLane="2" via=":E_6_0" dir="t" state="m"/>
    <connection from="Ni" to="Wo" fromLane="0" toLane="0" via=":C_0_0" tl="C" linkIndex="0" dir="r" state="o"/>
    <connection from="Ni" to="Wo" fromLane="0" toLane="1" via=":C_0_1" tl="C" linkIndex="1" dir="r" state="o"/>
    <connection from="Ni" to="So" fromLane="0" toLane="0" via=":C_2_0" tl="C" linkIndex="2" dir="s" state="o"/>
    <connection from="Ni" to="So" fromLane="1" toLane="1" via=":C_2_1" tl="C" linkIndex="3" dir="s" state="o"/>