<?xml version="1.0" encoding="UTF-8"?>
<nodes xmlns:xsi="http://www.w3.org/2001/XMLSchema-instance" xsi:noNamespaceSchemaLocation="http://sumo.dlr.de/xsd/nodes_file.xsd">
   <node id="C" x="0.0" y="0.0"  type="traffic_light"/>

   <node id="W" x="-1000.0" y="0.0" type="priority"/>
   <node id="E" x="+1000.0" y="0.0" type="priority"/>
   <node id="S" x="0.0" y="-1000.0" type="priority"/>
   <node id="N" x="0.0" y="+1000.0" type="priority"/>
   
   <node id="EW" x="-1000.0" y="0.0" type="priority"/>
   <node id="EE" x="+1000.0" y="0.0" type="priority"/>
   <node id="ES" x="0.0" y="-1000.0" type="priority"/>
   <node id="EN" x="0.0" y="+1000.0" type="priority"/>
</nodes>
