<routes>
            <vType id="can" accel="1.5" decel="4.5" length="5.0"/>
<flow id="f12" begin="0" end="5400" from="Wi" to="Eo" probability="0.220984"/>
<flow id="f14" begin="0" end="5400" from="Wi" to="No" probability="0.347441"/>
<flow id="f13" begin="0" end="5400" from="Wi" to="So" probability="0.809332"/>
<flow id="f21" begin="0" end="5400" from="Ei" to="Wo" probability="0.865191"/>
<flow id="f23" begin="0" end="5400" from="Ei" to="So" probability="0.855488"/>
<flow id="f24" begin="0" end="5400" from="Ei" to="No" probability="0.730305"/>
<flow id="f34" begin="0" end="5400" from="Si" to="No" probability="0.605637"/>
<flow id="f31" begin="0" end="5400" from="Si" to="Wo" probability="0.848300"/>
<flow id="f32" begin="0" end="5400" from="Si" to="Eo" probability="0.867642"/>
<flow id="f43" begin="0" end="5400" from="Ni" to="So" probability="0.044206"/>
<flow id="f41" begin="0" end="5400" from="Ni" to="Wo" probability="0.295863"/>
<flow id="f42" begin="0" end="5400" from="Ni" to="Eo" probability="0.281068"/>
</routes>
