<?xml version="1.0" encoding="UTF-8"?>

<!-- generated on Sun Nov 24 20:10:28 2019 by Eclipse SUMO netconvert Version 1.3.1
<configuration xmlns:xsi="http://www.w3.org/2001/XMLSchema-instance" xsi:noNamespaceSchemaLocation="http://sumo.dlr.de/xsd/netconvertConfiguration.xsd">

    <input>
        <node-files value="cross.nod.xml"/>
        <edge-files value="cross.edg.xml"/>
        <connection-files value="cross.con.xml"/>
    </input>

    <output>
        <output-file value="cross.net.xml"/>
    </output>

    <report>
        <verbose value="true"/>
    </report>

</configuration>
-->

<net version="1.3" junctionCornerDetail="5" limitTurnSpeed="5.50" xmlns:xsi="http://www.w3.org/2001/XMLSchema-instance" xsi:noNamespaceSchemaLocation="http://sumo.dlr.de/xsd/net_file.xsd">

    <location netOffset="1000.00,1000.00" convBoundary="0.00,0.00,2000.10,2000.10" origBoundary="-1000.00,-1000.00,1000.00,1000.00" projParameter="!"/>

    <edge id=":C_0" function="internal">
        <lane id=":C_0_0" index="0" speed="7.33" length="11.73" shape="992.00,1013.60 991.65,1009.75 990.60,1007.00 988.85,1005.35 986.40,1004.80"/>
    </edge>
    <edge id=":C_1" function="internal">
        <lane id=":C_1_0" index="0" speed="8.10" length="14.57" shape="992.00,1013.60 991.65,1008.35 990.60,1004.60 988.85,1002.35 986.40,1001.60"/>
    </edge>
    <edge id=":C_2" function="internal">
        <lane id=":C_2_0" index="0" speed="15.28" length="27.43" shape="992.00,1013.60 992.50,1004.98 993.60,998.61 994.70,992.94 995.20,986.40"/>
        <lane id=":C_2_1" index="1" speed="15.28" length="27.43" shape="995.20,1013.60 995.70,1004.98 996.80,998.61 997.90,992.94 998.40,986.40"/>
    </edge>
    <edge id=":C_4" function="internal">
        <lane id=":C_4_0" index="0" speed="10.88" length="13.31" shape="998.40,1013.60 999.35,1005.55 1001.66,1000.88"/>
    </edge>
    <edge id=":C_5" function="internal">
        <lane id=":C_5_0" index="0" speed="10.36" length="9.99" shape="998.40,1013.60 999.35,1006.95 1001.04,1004.14"/>
    </edge>
    <edge id=":C_24" function="internal">
        <lane id=":C_24_0" index="0" speed="10.88" length="13.83" shape="1001.66,1000.88 1002.20,999.80 1006.95,996.35 1013.60,995.20"/>
    </edge>
    <edge id=":C_25" function="internal">
        <lane id=":C_25_0" index="0" speed="10.36" length="14.52" shape="1001.04,1004.14 1002.20,1002.20 1006.95,999.35 1013.60,998.40"/>
    </edge>
    <edge id=":C_6" function="internal">
        <lane id=":C_6_0" index="0" speed="7.33" length="11.73" shape="1013.60,1008.00 1009.75,1008.35 1007.00,1009.40 1005.35,1011.15 1004.80,1013.60"/>
    </edge>
    <edge id=":C_7" function="internal">
        <lane id=":C_7_0" index="0" speed="8.10" length="14.57" shape="1013.60,1008.00 1008.35,1008.35 1004.60,1009.40 1002.35,1011.15 1001.60,1013.60"/>
    </edge>
    <edge id=":C_8" function="internal">
        <lane id=":C_8_0" index="0" speed="15.28" length="27.43" shape="1013.60,1008.00 1004.98,1007.50 998.61,1006.40 992.94,1005.30 986.40,1004.80"/>
        <lane id=":C_8_1" index="1" speed="15.28" length="27.43" shape="1013.60,1004.80 1004.98,1004.30 998.61,1003.20 992.94,1002.10 986.40,1001.60"/>
    </edge>
    <edge id=":C_10" function="internal">
        <lane id=":C_10_0" index="0" speed="10.88" length="13.31" shape="1013.60,1001.60 1005.55,1000.65 1000.88,998.34"/>
    </edge>
    <edge id=":C_11" function="internal">
        <lane id=":C_11_0" index="0" speed="10.36" length="9.99" shape="1013.60,1001.60 1006.95,1000.65 1004.14,998.96"/>
    </edge>
    <edge id=":C_26" function="internal">
        <lane id=":C_26_0" index="0" speed="10.88" length="13.83" shape="1000.88,998.34 999.80,997.80 996.35,993.05 995.20,986.40"/>
    </edge>
    <edge id=":C_27" function="internal">
        <lane id=":C_27_0" index="0" speed="10.36" length="14.52" shape="1004.14,998.96 1002.20,997.80 999.35,993.05 998.40,986.40"/>
    </edge>
    <edge id=":C_12" function="internal">
        <lane id=":C_12_0" index="0" speed="7.33" length="11.73" shape="1008.00,986.40 1008.35,990.25 1009.40,993.00 1011.15,994.65 1013.60,995.20"/>
    </edge>
    <edge id=":C_13" function="internal">
        <lane id=":C_13_0" index="0" speed="8.10" length="14.57" shape="1008.00,986.40 1008.35,991.65 1009.40,995.40 1011.15,997.65 1013.60,998.40"/>
    </edge>
    <edge id=":C_14" function="internal">
        <lane id=":C_14_0" index="0" speed="15.28" length="27.43" shape="1008.00,986.40 1007.50,995.02 1006.40,1001.39 1005.30,1007.06 1004.80,1013.60"/>
        <lane id=":C_14_1" index="1" speed="15.28" length="27.43" shape="1004.80,986.40 1004.30,995.02 1003.20,1001.39 1002.10,1007.06 1001.60,1013.60"/>
    </edge>
    <edge id=":C_16" function="internal">
        <lane id=":C_16_0" index="0" speed="10.88" length="13.31" shape="1001.60,986.40 1000.65,994.45 998.34,999.12"/>
    </edge>
    <edge id=":C_17" function="internal">
        <lane id=":C_17_0" index="0" speed="10.36" length="9.99" shape="1001.60,986.40 1000.65,993.05 998.96,995.86"/>
    </edge>
    <edge id=":C_28" function="internal">
        <lane id=":C_28_0" index="0" speed="10.88" length="13.83" shape="998.34,999.12 997.80,1000.20 993.05,1003.65 986.40,1004.80"/>
    </edge>
    <edge id=":C_29" function="internal">
        <lane id=":C_29_0" index="0" speed="10.36" length="14.52" shape="998.96,995.86 997.80,997.80 993.05,1000.65 986.40,1001.60"/>
    </edge>
    <edge id=":C_18" function="internal">
        <lane id=":C_18_0" index="0" speed="7.33" length="11.73" shape="986.40,992.00 990.25,991.65 993.00,990.60 994.65,988.85 995.20,986.40"/>
    </edge>
    <edge id=":C_19" function="internal">
        <lane id=":C_19_0" index="0" speed="8.10" length="14.57" shape="986.40,992.00 991.65,991.65 995.40,990.60 997.65,988.85 998.40,986.40"/>
    </edge>
    <edge id=":C_20" function="internal">
        <lane id=":C_20_0" index="0" speed="15.28" length="27.43" shape="986.40,992.00 995.02,992.50 1001.39,993.60 1007.06,994.70 1013.60,995.20"/>
        <lane id=":C_20_1" index="1" speed="15.28" length="27.43" shape="986.40,995.20 995.02,995.70 1001.39,996.80 1007.06,997.90 1013.60,998.40"/>
    </edge>
    <edge id=":C_22" function="internal">
        <lane id=":C_22_0" index="0" speed="10.88" length="13.31" shape="986.40,998.40 994.45,999.35 999.12,1001.66"/>
    </edge>
    <edge id=":C_23" function="internal">
        <lane id=":C_23_0" index="0" speed="10.36" length="9.99" shape="986.40,998.40 993.05,999.35 995.86,1001.04"/>
    </edge>
    <edge id=":C_30" function="internal">
        <lane id=":C_30_0" index="0" speed="10.88" length="13.83" shape="999.12,1001.66 1000.20,1002.20 1003.65,1006.95 1004.80,1013.60"/>
    </edge>
    <edge id=":C_31" function="internal">
        <lane id=":C_31_0" index="0" speed="10.36" length="14.52" shape="995.86,1001.04 997.80,1002.20 1000.65,1006.95 1001.60,1013.60"/>
    </edge>
    <edge id=":E_0" function="internal">
        <lane id=":E_0_0" index="0" speed="8.07" length="23.13" shape="2005.76,994.44 2010.55,1000.37 2011.38,1004.61 2008.25,1007.15 2001.15,1008.00"/>
    </edge>
    <edge id=":E_1" function="internal">
        <lane id=":E_1_0" index="0" speed="6.33" length="13.57" shape="2003.49,996.71 2006.38,1000.25 2006.96,1002.78 2005.21,1004.29 2001.15,1004.80"/>
    </edge>
    <edge id=":E_2" function="internal">
        <lane id=":E_2_0" index="0" speed="5.24" length="8.77" shape="2003.49,996.71 2005.18,998.85 2005.36,1000.38 2004.01,1001.29 2001.15,1001.60"/>
    </edge>
    <edge id=":E_3" function="internal">
        <lane id=":E_3_0" index="0" speed="15.28" length="1.29" shape="2001.23,998.97 2000.32,998.05"/>
    </edge>
    <edge id=":E_4" function="internal">
        <lane id=":E_4_0" index="0" speed="4.59" length="1.59" shape="2001.15,995.20 2001.55,995.24 2001.93,995.35 2002.27,995.53 2002.58,995.79"/>
    </edge>
    <edge id=":E_5" function="internal">
        <lane id=":E_5_0" index="0" speed="15.28" length="0.93" shape="2001.15,998.40 2000.92,998.38 2000.70,998.31 2000.50,998.21 2000.32,998.05"/>
    </edge>
    <edge id=":E_6" function="internal">
        <lane id=":E_6_0" index="0" speed="3.65" length="4.67" shape="2001.15,998.40 2002.35,999.20 2002.75,1000.00 2002.35,1000.80 2001.15,1001.60"/>
    </edge>
    <edge id=":EE_0" function="internal">
        <lane id=":EE_0_0" index="0" speed="15.28" length="1.13" shape="2003.39,996.61 2005.66,994.34"/>
        <lane id=":EE_0_1" index="1" speed="15.28" length="1.13" shape="2003.39,996.61 2003.39,996.61"/>
        <lane id=":EE_0_2" index="2" speed="15.28" length="1.13" shape="2001.13,998.87 2001.13,998.87"/>
    </edge>
    <edge id=":EN_0" function="internal">
        <lane id=":EN_0_0" index="0" speed="15.28" length="1.16" shape="1003.49,1996.71 1005.66,1994.34"/>
        <lane id=":EN_0_1" index="1" speed="15.28" length="1.16" shape="1003.49,1996.71 1003.39,1996.61"/>
        <lane id=":EN_0_2" index="2" speed="15.28" length="1.16" shape="1001.23,1998.97 1001.13,1998.87"/>
    </edge>
    <edge id=":ES_0" function="internal">
        <lane id=":ES_0_0" index="0" speed="15.28" length="1.16" shape="1003.49,-3.29 1005.66,-5.66"/>
        <lane id=":ES_0_1" index="1" speed="15.28" length="1.16" shape="1003.49,-3.29 1003.39,-3.39"/>
        <lane id=":ES_0_2" index="2" speed="15.28" length="1.16" shape="1001.23,-1.03 1001.13,-1.13"/>
    </edge>
    <edge id=":EW_0" function="internal">
        <lane id=":EW_0_0" index="0" speed="15.28" length="1.13" shape="3.39,996.61 5.66,994.34"/>
        <lane id=":EW_0_1" index="1" speed="15.28" length="1.13" shape="3.39,996.61 3.39,996.61"/>
        <lane id=":EW_0_2" index="2" speed="15.28" length="1.13" shape="1.13,998.87 1.13,998.87"/>
    </edge>
    <edge id=":N_0" function="internal">
        <lane id=":N_0_0" index="0" speed="4.53" length="1.53" shape="1004.80,1996.00 1003.39,1996.61"/>
    </edge>
    <edge id=":N_1" function="internal">
        <lane id=":N_1_0" index="0" speed="5.91" length="2.91" shape="1001.60,1996.00 1001.13,1998.87"/>
    </edge>
    <edge id=":N_2" function="internal">
        <lane id=":N_2_0" index="0" speed="3.65" length="4.67" shape="1001.60,1996.00 1000.80,1997.20 1000.00,1997.60 999.20,1997.20 998.40,1996.00"/>
    </edge>
    <edge id=":N_3" function="internal">
        <lane id=":N_3_0" index="0" speed="6.38" length="13.84" shape="1005.76,1994.44 992.00,1996.00"/>
    </edge>
    <edge id=":N_4" function="internal">
        <lane id=":N_4_0" index="0" speed="5.12" length="8.32" shape="1003.49,1996.71 995.20,1996.00"/>
    </edge>
    <edge id=":N_5" function="internal">
        <lane id=":N_5_0" index="0" speed="4.23" length="5.14" shape="1003.49,1996.71 998.40,1996.00"/>
    </edge>
    <edge id=":N_6" function="internal">
        <lane id=":N_6_0" index="0" speed="15.28" length="0.14" shape="1001.23,1998.97 1001.13,1998.87"/>
    </edge>
    <edge id=":S_0" function="internal">
        <lane id=":S_0_0" index="0" speed="5.39" length="9.41" shape="995.20,-2.48 996.21,-4.05 998.57,-4.69 1001.29,-4.46 1003.39,-3.39"/>
    </edge>
    <edge id=":S_1" function="internal">
        <lane id=":S_1_0" index="0" speed="3.74" length="3.66" shape="998.40,-2.48 998.57,-2.91 999.08,-2.83 999.94,-2.24 1001.13,-1.13"/>
    </edge>
    <edge id=":S_2" function="internal">
        <lane id=":S_2_0" index="0" speed="3.65" length="4.67" shape="998.40,-2.48 999.20,-3.68 1000.00,-4.08 1000.80,-3.68 1001.60,-2.48"/>
    </edge>
    <edge id=":S_3" function="internal">
        <lane id=":S_3_0" index="0" speed="6.72" length="3.88" shape="1005.76,-5.56 1006.41,-4.92 1007.14,-4.13 1007.75,-3.28 1008.00,-2.48"/>
    </edge>
    <edge id=":S_4" function="internal">
        <lane id=":S_4_0" index="0" speed="4.68" length="1.67" shape="1003.49,-3.29 1003.93,-3.04 1004.35,-2.97 1004.67,-2.85 1004.80,-2.48"/>
    </edge>
    <edge id=":S_5" function="internal">
        <lane id=":S_5_0" index="0" speed="5.11" length="2.06" shape="1003.49,-3.29 1001.60,-2.48"/>
    </edge>
    <edge id=":S_6" function="internal">
        <lane id=":S_6_0" index="0" speed="15.28" length="0.14" shape="1001.23,-1.03 1001.13,-1.13"/>
    </edge>
    <edge id=":W_0" function="internal">
        <lane id=":W_0_0" index="0" speed="7.60" length="20.34" shape="10.40,1004.80 -3.38,989.83"/>
    </edge>
    <edge id=":W_1" function="internal">
        <lane id=":W_1_0" index="0" speed="7.30" length="18.64" shape="10.40,1001.60 -5.64,992.10"/>
    </edge>
    <edge id=":W_2" function="internal">
        <lane id=":W_2_0" index="0" speed="3.65" length="4.67" shape="10.40,1001.60 9.20,1000.80 8.80,1000.00 9.20,999.20 10.40,998.40"/>
    </edge>
    <edge id=":W_3" function="internal">
        <lane id=":W_3_0" index="0" speed="15.28" length="10.23" shape="5.76,994.44 -3.38,989.83"/>
    </edge>
    <edge id=":W_4" function="internal">
        <lane id=":W_4_0" index="0" speed="9.60" length="8.36" shape="3.49,996.71 10.40,992.00"/>
    </edge>
    <edge id=":W_5" function="internal">
        <lane id=":W_5_0" index="0" speed="10.91" length="10.92" shape="1.23,998.97 3.45,999.86 5.27,998.40 7.37,996.28 10.40,995.20"/>
    </edge>
    <edge id=":W_6" function="internal">
        <lane id=":W_6_0" index="0" speed="10.36" length="9.80" shape="1.23,998.97 3.39,1000.25 5.31,999.90 7.49,998.95 10.40,998.40"/>
    </edge>

    <edge id="EEi" from="E" to="EE" priority="-1" shape="2000.00,1000.00 2000.10,1000.10">
        <lane id="EEi_0" index="0" speed="19.44" length="1.15" shape="2002.58,995.79 2003.39,996.61"/>
        <lane id="EEi_1" index="1" speed="19.44" length="1.15" shape="2000.32,998.05 2001.13,998.87"/>
    </edge>
    <edge id="EEo" from="EE" to="E" priority="-1" shape="2000.00,1000.00 2000.10,1000.10">
        <lane id="EEo_0" index="0" speed="11.11" length="0.14" shape="2005.66,994.34 2005.76,994.44"/>
        <lane id="EEo_1" index="1" speed="11.11" length="0.14" shape="2003.39,996.61 2003.49,996.71"/>
        <lane id="EEo_2" index="2" speed="11.11" length="0.14" shape="2001.13,998.87 2001.23,998.97"/>
    </edge>
    <edge id="ENi" from="N" to="EN" priority="-1" shape="1000.00,2000.00 1000.10,2000.10">
        <lane id="ENi_0" index="0" speed="19.44" length="0.14" shape="1003.39,1996.61 1003.49,1996.71"/>
        <lane id="ENi_1" index="1" speed="19.44" length="0.14" shape="1001.13,1998.87 1001.23,1998.97"/>
    </edge>
    <edge id="ENo" from="EN" to="N" priority="-1" shape="1000.00,2000.00 1000.10,2000.10">
        <lane id="ENo_0" index="0" speed="11.11" length="0.14" shape="1005.66,1994.34 1005.76,1994.44"/>
        <lane id="ENo_1" index="1" speed="11.11" length="0.14" shape="1003.39,1996.61 1003.49,1996.71"/>
        <lane id="ENo_2" index="2" speed="11.11" length="0.14" shape="1001.13,1998.87 1001.23,1998.97"/>
    </edge>
    <edge id="ESi" from="S" to="ES" priority="-1" shape="1000.00,0.00 1000.10,0.10">
        <lane id="ESi_0" index="0" speed="19.44" length="0.14" shape="1003.39,-3.39 1003.49,-3.29"/>
        <lane id="ESi_1" index="1" speed="19.44" length="0.14" shape="1001.13,-1.13 1001.23,-1.03"/>
    </edge>
    <edge id="ESo" from="ES" to="S" priority="-1" shape="1000.00,0.00 1000.10,0.10">
        <lane id="ESo_0" index="0" speed="11.11" length="0.14" shape="1005.66,-5.66 1005.76,-5.56"/>
        <lane id="ESo_1" index="1" speed="11.11" length="0.14" shape="1003.39,-3.39 1003.49,-3.29"/>
        <lane id="ESo_2" index="2" speed="11.11" length="0.14" shape="1001.13,-1.13 1001.23,-1.03"/>
    </edge>
    <edge id="EWi" from="W" to="EW" priority="-1" shape="0.00,1000.00 0.10,1000.10">
        <lane id="EWi_0" index="0" speed="19.44" length="9.58" shape="-3.38,989.83 3.39,996.61"/>
        <lane id="EWi_1" index="1" speed="19.44" length="9.58" shape="-5.64,992.10 1.13,998.87"/>
    </edge>
    <edge id="EWo" from="EW" to="W" priority="-1" shape="0.00,1000.00 0.10,1000.10">
        <lane id="EWo_0" index="0" speed="11.11" length="0.14" shape="5.66,994.34 5.76,994.44"/>
        <lane id="EWo_1" index="1" speed="11.11" length="0.14" shape="3.39,996.61 3.49,996.71"/>
        <lane id="EWo_2" index="2" speed="11.11" length="0.14" shape="1.13,998.87 1.23,998.97"/>
    </edge>
    <edge id="Ei" from="E" to="C" priority="-1">
        <lane id="Ei_0" index="0" speed="19.44" length="987.55" shape="2001.15,1008.00 1013.60,1008.00"/>
        <lane id="Ei_1" index="1" speed="19.44" length="987.55" shape="2001.15,1004.80 1013.60,1004.80"/>
        <lane id="Ei_2" index="2" speed="19.44" length="987.55" shape="2001.15,1001.60 1013.60,1001.60"/>
    </edge>
    <edge id="Eo" from="C" to="E" priority="-1">
        <lane id="Eo_0" index="0" speed="11.11" length="987.55" shape="1013.60,995.20 2001.15,995.20"/>
        <lane id="Eo_1" index="1" speed="11.11" length="987.55" shape="1013.60,998.40 2001.15,998.40"/>
    </edge>
    <edge id="Ni" from="N" to="C" priority="-1">
        <lane id="Ni_0" index="0" speed="19.44" length="982.40" shape="992.00,1996.00 992.00,1013.60"/>
        <lane id="Ni_1" index="1" speed="19.44" length="982.40" shape="995.20,1996.00 995.20,1013.60"/>
        <lane id="Ni_2" index="2" speed="19.44" length="982.40" shape="998.40,1996.00 998.40,1013.60"/>
    </edge>
    <edge id="No" from="C" to="N" priority="-1">
        <lane id="No_0" index="0" speed="11.11" length="982.40" shape="1004.80,1013.60 1004.80,1996.00"/>
        <lane id="No_1" index="1" speed="11.11" length="982.40" shape="1001.60,1013.60 1001.60,1996.00"/>
    </edge>
    <edge id="Si" from="S" to="C" priority="-1">
        <lane id="Si_0" index="0" speed="19.44" length="988.88" shape="1008.00,-2.48 1008.00,986.40"/>
        <lane id="Si_1" index="1" speed="19.44" length="988.88" shape="1004.80,-2.48 1004.80,986.40"/>
        <lane id="Si_2" index="2" speed="19.44" length="988.88" shape="1001.60,-2.48 1001.60,986.40"/>
    </edge>
    <edge id="So" from="C" to="S" priority="-1">
        <lane id="So_0" index="0" speed="11.11" length="988.88" shape="995.20,986.40 995.20,-2.48"/>
        <lane id="So_1" index="1" speed="11.11" length="988.88" shape="998.40,986.40 998.40,-2.48"/>
    </edge>
    <edge id="Wi" from="W" to="C" priority="-1">
        <lane id="Wi_0" index="0" speed="19.44" length="976.00" shape="10.40,992.00 986.40,992.00"/>
        <lane id="Wi_1" index="1" speed="19.44" length="976.00" shape="10.40,995.20 986.40,995.20"/>
        <lane id="Wi_2" index="2" speed="19.44" length="976.00" shape="10.40,998.40 986.40,998.40"/>
    </edge>
    <edge id="Wo" from="C" to="W" priority="-1">
        <lane id="Wo_0" index="0" speed="11.11" length="976.00" shape="986.40,1004.80 10.40,1004.80"/>
        <lane id="Wo_1" index="1" speed="11.11" length="976.00" shape="986.40,1001.60 10.40,1001.60"/>
    </edge>

    <tlLogic id="C" type="static" programID="0" offset="0">
        <phase duration="29" state="GGGGrrrrrrrrGGGGrrrrrrrr"/>
        <phase duration="5"  state="yyyyrrrrrrrryyyyrrrrrrrr"/>
        <phase duration="6"  state="rrrrGGrrrrrrrrrrGGrrrrrr"/>
        <phase duration="5"  state="rrrryyrrrrrrrrrryyrrrrrr"/>
        <phase duration="29" state="rrrrrrGGGGrrrrrrrrGGGGrr"/>
        <phase duration="5"  state="rrrrrryyyyrrrrrrrryyyyrr"/>
        <phase duration="6"  state="rrrrrrrrrrGGrrrrrrrrrrGG"/>
        <phase duration="5"  state="rrrrrrrrrryyrrrrrrrrrryy"/>
    </tlLogic>

    <junction id="C" type="traffic_light" x="1000.00" y="1000.00" incLanes="Ni_0 Ni_1 Ni_2 Ei_0 Ei_1 Ei_2 Si_0 Si_1 Si_2 Wi_0 Wi_1 Wi_2" intLanes=":C_0_0 :C_1_0 :C_2_0 :C_2_1 :C_24_0 :C_25_0 :C_6_0 :C_7_0 :C_8_0 :C_8_1 :C_26_0 :C_27_0 :C_12_0 :C_13_0 :C_14_0 :C_14_1 :C_28_0 :C_29_0 :C_18_0 :C_19_0 :C_20_0 :C_20_1 :C_30_0 :C_31_0" shape="990.40,1013.60 1006.40,1013.60 1007.20,1011.38 1008.20,1010.60 1009.60,1010.04 1011.40,1009.71 1013.60,1009.60 1013.60,993.60 1011.38,992.80 1010.60,991.80 1010.04,990.40 1009.71,988.60 1009.60,986.40 993.60,986.40 992.80,988.62 991.80,989.40 990.40,989.96 988.60,990.29 986.40,990.40 986.40,1006.40 988.62,1007.20 989.40,1008.20 989.96,1009.60 990.29,1011.40">
        <request index="0"  response="000000000000000000000000" foes="000000110000001100000000" cont="0"/>
        <request index="1"  response="000000000000000000000000" foes="000000110000001100000000" cont="0"/>
        <request index="2"  response="110000000000110000000000" foes="111111110000111100000000" cont="0"/>
        <request index="3"  response="110000000000110000000000" foes="111111110000111100000000" cont="0"/>
        <request index="4"  response="110000001111110000000000" foes="111100001111111100000000" cont="1"/>
        <request index="5"  response="110000001111110000000000" foes="111100001111111100000000" cont="1"/>
        <request index="6"  response="000000001100000000000000" foes="110000001100000000000000" cont="0"/>
        <request index="7"  response="000000001100000000000000" foes="110000001100000000000000" cont="0"/>
        <request index="8"  response="000000111100000000111111" foes="110000111100000000111111" cont="0"/>
        <request index="9"  response="000000111100000000111111" foes="110000111100000000111111" cont="0"/>
        <request index="10" response="001111111100000000111100" foes="001111111100000000111100" cont="1"/>
        <request index="11" response="001111111100000000111100" foes="001111111100000000111100" cont="1"/>
        <request index="12" response="000000000000000000000000" foes="001100000000000000110000" cont="0"/>
        <request index="13" response="000000000000000000000000" foes="001100000000000000110000" cont="0"/>
        <request index="14" response="110000000000110000000000" foes="111100000000111111110000" cont="0"/>
        <request index="15" response="110000000000110000000000" foes="111100000000111111110000" cont="0"/>
        <request index="16" response="110000000000110000001111" foes="111100000000111100001111" cont="1"/>
        <request index="17" response="110000000000110000001111" foes="111100000000111100001111" cont="1"/>
        <request index="18" response="000000000000000000001100" foes="000000000000110000001100" cont="0"/>
        <request index="19" response="000000000000000000001100" foes="000000000000110000001100" cont="0"/>
        <request index="20" response="000000111111000000111100" foes="000000111111110000111100" cont="0"/>
        <request index="21" response="000000111111000000111100" foes="000000111111110000111100" cont="0"/>
        <request index="22" response="000000111100001111111100" foes="000000111100001111111100" cont="1"/>
        <request index="23" response="000000111100001111111100" foes="000000111100001111111100" cont="1"/>
    </junction>
    <junction id="E" type="priority" x="2000.00" y="1000.00" incLanes="EEo_0 EEo_1 EEo_2 Eo_0 Eo_1" intLanes=":E_0_0 :E_1_0 :E_2_0 :E_3_0 :E_4_0 :E_5_0 :E_6_0" shape="1999.19,999.19 2003.71,994.66 2002.96,994.07 2002.54,993.87 2002.10,993.72 2001.64,993.63 2001.15,993.60 2001.15,1009.60 2007.43,1009.15 2011.58,1007.79 2013.60,1005.53 2013.49,1002.36 2011.25,998.29 2006.89,993.31 2000.10,1000.10">
        <request index="0" response="0000000" foes="1000000" cont="0"/>
        <request index="1" response="0000000" foes="1000000" cont="0"/>
        <request index="2" response="0000000" foes="1000000" cont="0"/>
        <request index="3" response="0000000" foes="0110000" cont="0"/>
        <request index="4" response="0001000" foes="0001000" cont="0"/>
        <request index="5" response="0001000" foes="0001000" cont="0"/>
        <request index="6" response="0000111" foes="0000111" cont="0"/>
    </junction>
    <junction id="EE" type="priority" x="2000.00" y="1000.00" incLanes="EEi_0 EEi_1" intLanes=":EE_0_0 :EE_0_1 :EE_0_2" shape="2000.10,1000.10 2006.89,993.31 2004.53,995.47 2000.00,1000.00">
        <request index="0" response="000" foes="000" cont="0"/>
        <request index="1" response="000" foes="000" cont="0"/>
        <request index="2" response="000" foes="000" cont="0"/>
    </junction>
    <junction id="EN" type="priority" x="1000.00" y="2000.00" incLanes="ENi_0 ENi_1" intLanes=":EN_0_0 :EN_0_1 :EN_0_2" shape="1000.10,2000.10 1006.89,1993.31 1004.53,1995.47 1000.00,2000.00">
        <request index="0" response="000" foes="000" cont="0"/>
        <request index="1" response="000" foes="000" cont="0"/>
        <request index="2" response="000" foes="000" cont="0"/>
    </junction>
    <junction id="ES" type="priority" x="1000.00" y="0.00" incLanes="ESi_0 ESi_1" intLanes=":ES_0_0 :ES_0_1 :ES_0_2" shape="1000.10,0.10 1006.89,-6.69 1004.53,-4.53 1000.00,0.00">
        <request index="0" response="000" foes="000" cont="0"/>
        <request index="1" response="000" foes="000" cont="0"/>
        <request index="2" response="000" foes="000" cont="0"/>
    </junction>
    <junction id="EW" type="priority" x="0.00" y="1000.00" incLanes="EWi_0 EWi_1" intLanes=":EW_0_0 :EW_0_1 :EW_0_2" shape="0.10,1000.10 6.89,993.31 4.53,995.47 0.00,1000.00">
        <request index="0" response="000" foes="000" cont="0"/>
        <request index="1" response="000" foes="000" cont="0"/>
        <request index="2" response="000" foes="000" cont="0"/>
    </junction>
    <junction id="N" type="priority" x="1000.00" y="2000.00" incLanes="No_0 No_1 ENo_0 ENo_1 ENo_2" intLanes=":N_0_0 :N_1_0 :N_2_0 :N_3_0 :N_4_0 :N_5_0 :N_6_0" shape="1000.10,2000.10 1004.63,1995.57 1006.40,1996.00 990.40,1996.00 1006.79,1993.21 1000.00,2000.00">
        <request index="0" response="1000000" foes="1000000" cont="0"/>
        <request index="1" response="1000000" foes="1000000" cont="0"/>
        <request index="2" response="0111000" foes="0111000" cont="0"/>
        <request index="3" response="0000000" foes="0000100" cont="0"/>
        <request index="4" response="0000000" foes="0000100" cont="0"/>
        <request index="5" response="0000000" foes="0000100" cont="0"/>
        <request index="6" response="0000000" foes="0000011" cont="0"/>
    </junction>
    <junction id="S" type="priority" x="1000.00" y="0.00" incLanes="So_0 So_1 ESo_0 ESo_1 ESo_2" intLanes=":S_0_0 :S_1_0 :S_2_0 :S_3_0 :S_4_0 :S_5_0 :S_6_0" shape="993.60,-2.48 1009.60,-2.48 1006.79,-6.79 1000.00,0.00 1000.10,0.10 1004.63,-4.43">
        <request index="0" response="1000000" foes="1100000" cont="0"/>
        <request index="1" response="1000000" foes="1000000" cont="0"/>
        <request index="2" response="0111000" foes="0111000" cont="0"/>
        <request index="3" response="0000000" foes="0000100" cont="0"/>
        <request index="4" response="0000000" foes="0000100" cont="0"/>
        <request index="5" response="0000010" foes="0000110" cont="0"/>
        <request index="6" response="0000000" foes="0000011" cont="0"/>
    </junction>
    <junction id="W" type="priority" x="0.00" y="1000.00" incLanes="Wo_0 Wo_1 EWo_0 EWo_1 EWo_2" intLanes=":W_0_0 :W_1_0 :W_2_0 :W_3_0 :W_4_0 :W_5_0 :W_6_0" shape="-6.77,993.23 -2.25,988.70 6.89,993.31 0.10,1000.10 2.14,1002.03 4.04,1003.60 5.82,1004.83 7.48,1005.70 9.00,1006.22 10.40,1006.40 10.40,990.40 4.37,990.48 -0.40,990.71 -3.89,991.11 -6.12,991.66 -7.08,992.36">
        <request index="0" response="1111000" foes="1111000" cont="0"/>
        <request index="1" response="1111000" foes="1111000" cont="0"/>
        <request index="2" response="1110000" foes="1110000" cont="0"/>
        <request index="3" response="0000000" foes="0000011" cont="0"/>
        <request index="4" response="0000000" foes="0000111" cont="0"/>
        <request index="5" response="0000000" foes="0000111" cont="0"/>
        <request index="6" response="0000000" foes="0000111" cont="0"/>
    </junction>

    <junction id=":C_24_0" type="internal" x="1001.66" y="1000.88" incLanes=":C_4_0 Si_0 Si_1" intLanes=":C_8_0 :C_8_1 :C_10_0 :C_11_0 :C_12_0 :C_13_0 :C_14_0 :C_14_1 :C_20_0 :C_20_1 :C_22_0 :C_23_0"/>
    <junction id=":C_25_0" type="internal" x="1001.04" y="1004.14" incLanes=":C_5_0 Si_0 Si_1" intLanes=":C_8_0 :C_8_1 :C_10_0 :C_11_0 :C_12_0 :C_13_0 :C_14_0 :C_14_1 :C_20_0 :C_20_1 :C_22_0 :C_23_0"/>
    <junction id=":C_26_0" type="internal" x="1000.88" y="998.34" incLanes=":C_10_0 Wi_0 Wi_1" intLanes=":C_2_0 :C_2_1 :C_4_0 :C_5_0 :C_14_0 :C_14_1 :C_16_0 :C_17_0 :C_18_0 :C_19_0 :C_20_0 :C_20_1"/>
    <junction id=":C_27_0" type="internal" x="1004.14" y="998.96" incLanes=":C_11_0 Wi_0 Wi_1" intLanes=":C_2_0 :C_2_1 :C_4_0 :C_5_0 :C_14_0 :C_14_1 :C_16_0 :C_17_0 :C_18_0 :C_19_0 :C_20_0 :C_20_1"/>
    <junction id=":C_28_0" type="internal" x="998.34" y="999.12" incLanes=":C_16_0 Ni_0 Ni_1" intLanes=":C_0_0 :C_1_0 :C_2_0 :C_2_1 :C_8_0 :C_8_1 :C_10_0 :C_11_0 :C_20_0 :C_20_1 :C_22_0 :C_23_0"/>
    <junction id=":C_29_0" type="internal" x="998.96" y="995.86" incLanes=":C_17_0 Ni_0 Ni_1" intLanes=":C_0_0 :C_1_0 :C_2_0 :C_2_1 :C_8_0 :C_8_1 :C_10_0 :C_11_0 :C_20_0 :C_20_1 :C_22_0 :C_23_0"/>
    <junction id=":C_30_0" type="internal" x="999.12" y="1001.66" incLanes=":C_22_0 Ei_0 Ei_1" intLanes=":C_2_0 :C_2_1 :C_4_0 :C_5_0 :C_6_0 :C_7_0 :C_8_0 :C_8_1 :C_14_0 :C_14_1 :C_16_0 :C_17_0"/>
    <junction id=":C_31_0" type="internal" x="995.86" y="1001.04" incLanes=":C_23_0 Ei_0 Ei_1" intLanes=":C_2_0 :C_2_1 :C_4_0 :C_5_0 :C_6_0 :C_7_0 :C_8_0 :C_8_1 :C_14_0 :C_14_1 :C_16_0 :C_17_0"/>

    <connection from="EEi" to="EEo" fromLane="0" toLane="0" via=":EE_0_0" dir="s" state="M"/>
    <connection from="EEi" to="EEo" fromLane="0" toLane="1" via=":EE_0_1" dir="s" state="M"/>
    <connection from="EEi" to="EEo" fromLane="1" toLane="2" via=":EE_0_2" dir="s" state="M"/>
    <connection from="EEo" to="Ei" fromLane="0" toLane="0" via=":E_0_0" dir="l" state="M"/>
    <connection from="EEo" to="Ei" fromLane="1" toLane="1" via=":E_1_0" dir="l" state="M"/>
    <connection from="EEo" to="Ei" fromLane="1" toLane="2" via=":E_2_0" dir="l" state="M"/>
    <connection from="EEo" to="EEi" fromLane="2" toLane="1" via=":E_3_0" dir="s" state="M"/>
    <connection from="ENi" to="ENo" fromLane="0" toLane="0" via=":EN_0_0" dir="s" state="M"/>
    <connection from="ENi" to="ENo" fromLane="0" toLane="1" via=":EN_0_1" dir="s" state="M"/>